92 
5jfu_ligand_ani.xyz
 C   -5.069535    2.829321   -0.919372
 C   -3.309083    1.198827   -0.709820
 C   -2.842331    3.358450   -1.675310
 C   -4.164829    3.724634   -1.499563
 O   -0.651657    0.193911   -1.478389
 N    0.044720    2.139839   -0.018806
 C   -0.285310    1.422683    1.216613
 C    0.909318    0.765124    1.919837
 O    0.521003    0.368845    3.211880
 C   -0.258431   -2.073439    1.276613
 O   -5.306011   -3.630222   -0.011067
 C   -4.783987   -3.614645   -1.330114
 C   -3.274955   -3.458777   -1.158501
 C   -3.006927   -4.245508    0.131515
 C    2.565572    0.059165    0.100122
 O   -6.344283    3.282842   -0.783181
 C   -7.284993    2.411120   -0.195993
 C   -4.641495    1.560989   -0.528419
 C   -2.410496    2.100769   -1.261071
 S   -0.704194    1.649600   -1.438840
 O   -0.131122    2.439325   -2.513909
 C    0.301693    3.581732    0.120792
 C    1.787282    4.365574    2.037638
 C    3.052110    4.595878    2.575692
 C    4.191732    4.327986    1.822739
 C    4.058832    3.821366    0.532991
 C    2.796049    3.581046    0.001958
 C    1.645943    3.856394    0.747198
 C    1.556249   -0.419717    1.147528
 N    0.598705   -1.326123    0.545069
 O   -0.236432   -2.192456    2.496607
 O   -1.165545   -2.677798    0.486039
 C   -2.124744   -3.523423    1.156281
 C   -3.139274   -2.749946    1.997734
 O   -4.263381   -3.617927    2.058466
 C   -4.390663   -4.287543    0.836536
 C    3.634130   -0.937828   -0.388830
 C    3.048412   -2.171044   -1.099694
 C    4.174029   -3.069455   -1.637001
 C    5.057124   -3.531932   -0.468498
 C    5.668827   -2.310643    0.232413
 C    6.522408   -1.524016   -0.771747
 C    5.644544   -1.061303   -1.943015
 C    4.516140   -0.176496   -1.400854
 C    4.536931   -1.417590    0.760935
 C    5.031543   -2.284318   -2.638606
 H   -2.972516    0.203785   -0.428883
 H   -2.139753    4.038562   -2.149170
 H   -4.530647    4.699588   -1.805310
 H   -0.695100    2.142822    1.931476
 H   -1.070385    0.681071    1.031745
 H    1.687380    1.524916    2.053827
 H    0.169692   -0.539729    3.156247
 H   -5.261047   -2.781857   -1.854837
 H   -5.032829   -4.547383   -1.860102
 H   -2.702024   -3.828312   -2.011697
 H   -3.026781   -2.401408   -1.016893
 H   -2.628408   -5.251006   -0.081826
 H    2.022827    0.453354   -0.769699
 H    3.108021    0.906320    0.534453
 H   -7.407631    1.494276   -0.788034
 H   -8.229462    2.956522   -0.173630
 H   -6.996618    2.139470    0.828354
 H   -5.332790    0.853952   -0.085086
 H    0.276682    4.005861   -0.886527
 H   -0.505366    4.046847    0.702170
 H    0.901595    4.579151    2.634828
 H    3.145009    4.991393    3.583463
 H    5.178544    4.512309    2.238744
 H    4.944154    3.609418   -0.063805
 H    2.695078    3.161976   -1.000184
 H    2.070741   -0.984466    1.937657
 H    0.301907   -1.120113   -0.403593
 H   -1.590387   -4.244287    1.783292
 H   -3.412707   -1.797211    1.520750
 H   -2.787148   -2.556703    3.013137
 H   -4.774692   -5.292036    1.062044
 H    2.407681   -1.842542   -1.932005
 H    2.417858   -2.744284   -0.408501
 H    3.731674   -3.942833   -2.133519
 H    4.460598   -4.114857    0.246123
 H    5.854327   -4.191067   -0.838483
 H    6.294207   -2.639968    1.072216
 H    7.342912   -2.153750   -1.141787
 H    6.977353   -0.654844   -0.278452
 H    6.250202   -0.490837   -2.659083
 H    3.882441    0.181830   -2.225597
 H    4.940892    0.714089   -0.912596
 H    3.945914   -1.982721    1.495468
 H    4.957068   -0.546431    1.284228
 H    4.416252   -1.962951   -3.489340
 H    5.826957   -2.928304   -3.037914
