94 
5jg1_ligand_dft.xyz
 O   -4.670561   -3.455726   -0.126913
 C   -3.006899   -2.032134    1.799653
 C   -1.706708   -2.633718    2.349259
 C   -1.793663   -2.724180    3.873823
 C   -1.427168   -3.998344    1.721393
 C   -2.088776   -0.600945   -0.034101
 C   -0.816732   -1.019768   -0.792882
 C    0.358419   -0.083043   -0.505026
 C    2.529138   -1.209123   -0.324724
 C    4.626894   -2.261005   -0.413562
 C    5.572021   -2.894298   -1.448679
 O    7.995725   -1.237010    0.453693
 C   -7.295031    1.040004   -0.223333
 C   -6.378279    1.097125   -1.276230
 C   -5.430373    0.087572   -1.418204
 C   -5.399790   -0.969302   -0.517030
 C   -6.320230   -1.034424    0.533301
 C   -7.261828   -0.034447    0.678023
 S   -4.136868   -2.208629   -0.643946
 O   -3.590959   -2.119538   -1.996906
 N   -2.915681   -1.740686    0.368338
 O   -0.995965   -1.045061   -2.188826
 N    1.564231   -0.644927   -1.086212
 O    2.557315   -1.216669    0.893631
 O    3.499755   -1.735081   -1.108382
 O    6.891357   -2.660240   -0.990334
 C    6.853087   -1.992170    0.267893
 C    8.094890   -0.082325   -0.370074
 C    6.899145    0.836514   -0.163727
 C    5.619270    0.085774   -0.526570
 C    5.521073   -1.224392    0.266300
 C    0.124078    1.352595   -1.001461
 C    0.864785    2.465150   -0.241002
 C    0.308552    2.622798    1.190832
 C    1.008242    3.779893    1.922733
 C    0.766829    5.088934    1.155056
 C    1.335190    4.960661   -0.266803
 C    2.844940    4.682461   -0.194116
 C    3.085550    3.374101    0.573377
 C    2.382898    2.210528   -0.142609
 C    0.641816    3.796636   -0.989199
 C    2.518379    3.501029    1.996049
 O   -8.253191    1.961661    0.007030
 C   -8.351253    3.063281   -0.872541
 H   -3.818061   -2.749104    1.950214
 H   -3.262310   -1.109952    2.343698
 H   -0.876840   -1.957419    2.097307
 H   -2.619301   -3.379332    4.178468
 H   -1.956458   -1.740325    4.328481
 H   -0.869943   -3.137781    4.290183
 H   -1.402132   -3.936509    0.629438
 H   -2.210560   -4.715741    1.993482
 H   -0.466481   -4.394194    2.066325
 H   -1.821007   -0.065695    0.883862
 H   -2.666150    0.099651   -0.648925
 H   -0.531722   -2.015220   -0.418908
 H    0.526770   -0.091728    0.575335
 H    4.276759   -2.995334    0.317494
 H    5.399184   -3.970369   -1.559980
 H    5.429488   -2.418059   -2.426251
 H   -6.394762    1.908156   -1.994223
 H   -4.726940    0.109919   -2.243833
 H   -6.308153   -1.878280    1.215219
 H   -7.995804   -0.062777    1.475783
 H   -1.783104   -1.585330   -2.370879
 H    1.568471   -0.825556   -2.079647
 H    6.879739   -2.735269    1.076166
 H    9.031438    0.397938   -0.077823
 H    8.171491   -0.382619   -1.423833
 H    6.870338    1.155697    0.885611
 H    7.007598    1.735463   -0.780896
 H    5.625470   -0.123844   -1.603644
 H    4.733156    0.697308   -0.331149
 H    5.195891   -1.019998    1.288465
 H   -0.949078    1.580025   -0.956765
 H    0.387174    1.394816   -2.065523
 H   -0.774568    2.809258    1.144653
 H    0.453381    1.694108    1.759009
 H    0.599068    3.867126    2.936602
 H   -0.308729    5.306853    1.111132
 H    1.245351    5.927208    1.678318
 H    1.157163    5.890949   -0.819800
 H    3.262553    4.605889   -1.206854
 H    3.358198    5.514803    0.305310
 H    4.162182    3.167612    0.624763
 H    2.801276    2.072143   -1.149251
 H    2.568995    1.285849    0.415414
 H   -0.436447    3.994042   -1.074349
 H    1.031705    3.707337   -2.012738
 H    3.023844    4.313879    2.534001
 H    2.703734    2.575201    2.555892
 H   -7.432949    3.663392   -0.865464
 H   -8.567675    2.738504   -1.897565
 H   -9.179826    3.667363   -0.502940
