122 
5jjm_ligand_xtb.xyz
 N    0.413442    1.106307    1.366866
 C    0.005032    2.144148    0.398181
 C   -1.441387    2.483756    0.791321
 O   -1.756130    2.341314    1.965481
 C    0.248602    1.658297   -1.037949
 O    1.606648    1.346169   -1.232348
 N   -2.240112    2.995164   -0.143425
 C   -3.675388    3.135253    0.084938
 C   -4.213101    1.690544    0.003432
 O   -4.573096    1.200057   -1.043414
 C   -4.301621    4.031496   -0.973393
 C   -3.720081    5.449170   -1.018177
 C   -4.287620    6.189726   -2.227337
 C   -4.028098    6.222040    0.262193
 N   -4.193441    1.052491    1.200553
 C   -4.107770   -0.396049    1.256700
 C   -2.790794   -0.824369    0.576702
 O   -2.013742    0.001819    0.119966
 C   -5.343237   -1.075567    0.636651
 C   -6.271585   -1.686698    1.682877
 C   -5.687657   -2.922046    2.343508
 O   -4.603346   -3.402463    2.061346
 N   -6.472946   -3.465313    3.289386
 N   -2.604547   -2.143007    0.572084
 C   -1.499162   -2.813981   -0.073949
 C   -0.170543   -2.500075    0.618740
 O   -0.006781   -1.567378    1.387705
 C   -1.425361   -2.442371   -1.574135
 C   -2.705076   -2.842344   -2.255690
 C   -3.727089   -1.920371   -2.439813
 C   -2.899514   -4.156285   -2.664092
 C   -4.922839   -2.308152   -3.020438
 C   -4.091925   -4.542397   -3.248805
 C   -5.108567   -3.618489   -3.424900
 N    0.800435   -3.381565    0.335065
 C    2.155912   -3.242306    0.830419
 C    2.782595   -1.968587    0.236713
 O    2.235133   -1.339833   -0.650555
 C    2.917050   -4.522309    0.453876
 C    4.278374   -4.766278    1.118036
 C    4.847230   -6.083500    0.588852
 C    4.173305   -4.825562    2.640410
 N    3.971409   -1.647342    0.772110
 C    4.789472   -0.535790    0.317793
 C    4.043082    0.771510    0.612798
 O    3.101929    0.793145    1.397744
 C    5.164512   -0.683459   -1.166018
 C    5.783218   -2.044232   -1.514430
 C    7.099224   -2.277479   -0.776091
 C    6.010446   -2.113025   -3.023196
 N    4.517466    1.862812    0.015439
 C    3.851379    3.142826    0.034037
 C    4.542171    4.017519   -1.004379
 O    4.029390    5.235630   -1.058893
 C    3.877783    3.815279    1.417130
 C    2.822028    4.896350    1.489570
 O    3.285445    6.015840    2.017497
 O    1.683332    4.747966    1.126844
 O    5.454709    3.629036   -1.682009
 H   -0.024618    1.374111    2.263456
 H    1.449049    1.006842    1.438483
 H    0.011057    0.169034    1.125542
 H    0.605873    3.046104    0.583077
 H    0.021217    2.468995   -1.737316
 H   -0.399562    0.805301   -1.248424
 H    1.766717    0.403263   -1.049013
 H   -1.967374    2.942612   -1.112211
 H   -3.817919    3.536054    1.091191
 H   -4.175536    3.546472   -1.944158
 H   -5.373875    4.086308   -0.777363
 H   -2.631876    5.382588   -1.128308
 H   -3.870609    7.191506   -2.291522
 H   -4.055111    5.662565   -3.149579
 H   -5.368557    6.274310   -2.145177
 H   -5.100250    6.245566    0.443390
 H   -3.676130    7.246813    0.173904
 H   -3.538356    5.773520    1.122652
 H   -3.676868    1.528383    1.930919
 H   -4.024276   -0.676057    2.311636
 H   -5.034797   -1.852786   -0.063602
 H   -5.890259   -0.328564    0.065061
 H   -6.512593   -0.953577    2.455618
 H   -7.206978   -1.982166    1.202163
 H   -7.382702   -3.098224    3.505533
 H   -6.171636   -4.306191    3.755026
 H   -3.295960   -2.716317    1.059523
 H   -1.688110   -3.888530    0.016188
 H   -1.277959   -1.366530   -1.658062
 H   -0.572405   -2.947169   -2.030636
 H   -3.597742   -0.893592   -2.130748
 H   -2.108784   -4.882400   -2.531880
 H   -5.707004   -1.578789   -3.154427
 H   -4.228185   -5.565076   -3.567449
 H   -6.039873   -3.920142   -3.879899
 H    0.647317   -4.064018   -0.390458
 H    2.097058   -3.117787    1.917870
 H    2.270445   -5.364538    0.715005
 H    3.050795   -4.529108   -0.631675
 H    4.975547   -3.973316    0.832705
 H    4.198194   -6.915017    0.852681
 H    5.828811   -6.269399    1.016050
 H    4.947508   -6.054675   -0.493503
 H    3.473928   -5.602345    2.940193
 H    5.143276   -5.061831    3.070638
 H    3.837961   -3.883181    3.069244
 H    4.273983   -2.143714    1.592991
 H    5.698403   -0.535388    0.927727
 H    4.266353   -0.539011   -1.767587
 H    5.886259    0.089118   -1.433871
 H    5.076663   -2.834241   -1.240252
 H    7.803694   -1.478267   -0.995012
 H    7.543946   -3.216141   -1.096196
 H    6.957023   -2.327923    0.301193
 H    5.076513   -1.965878   -3.559895
 H    6.417497   -3.081357   -3.302227
 H    6.712455   -1.344663   -3.337963
 H    5.282577    1.815115   -0.647776
 H    2.804539    3.004397   -0.275238
 H    4.476530    5.777480   -1.730711
 H    3.632899    3.057067    2.164870
 H    4.854976    4.238546    1.645284
 H    2.598987    6.701422    2.068350
