60 
5jjs_ligand_xtb.xyz
 C   -6.946004    1.112506    2.115071
 O   -5.844269    0.255171    2.265824
 C   -5.557727   -0.544823    1.128328
 C   -4.106022   -1.008148    1.280526
 C   -6.479056   -1.763632    1.010024
 C   -6.076430   -2.598502   -0.201830
 C   -4.644878   -3.105333   -0.052263
 C   -3.679975   -1.957106    0.181097
 S   -3.485303   -1.051012   -1.389295
 O   -4.598273   -0.204437   -1.714632
 O   -3.025553   -1.939107   -2.408548
 N   -2.259932    0.085977   -1.029966
 C   -1.036470   -0.235819   -0.533200
 O   -0.754492   -1.383007   -0.251409
 C   -0.063949    0.877614   -0.346831
 C    1.260659    0.496083   -0.183930
 C   -0.386751    2.246151   -0.277522
 O   -1.692615    2.614260   -0.387729
 C   -2.046494    3.970597   -0.219590
 C    0.643495    3.160397   -0.096841
 C    1.966783    2.764086    0.038374
 O    2.897233    3.762070    0.209845
 C    3.779011    3.956441   -0.880676
 C    2.298460    1.398411    0.026124
 C    3.644087    0.914223    0.264481
 S    4.152074   -0.620044   -0.380121
 C    4.641096    1.491264    1.009789
 C    5.812177    0.723301    1.066288
 C    5.718384   -0.448939    0.360350
 C    6.695986   -1.434029    0.205147
 C    7.530984   -2.281893    0.010641
 C    8.530617   -3.330042   -0.094239
 O    8.950177   -3.825010    1.160670
 H   -6.846353    1.730389    1.214284
 H   -6.957539    1.752616    2.995736
 H   -7.892294    0.563099    2.061033
 H   -5.652694    0.063160    0.218105
 H   -3.451052   -0.135229    1.295555
 H   -4.014592   -1.505597    2.249521
 H   -7.514333   -1.436220    0.904578
 H   -6.401599   -2.356357    1.924720
 H   -6.146736   -1.984871   -1.100772
 H   -6.755632   -3.446058   -0.310412
 H   -4.584805   -3.795238    0.794096
 H   -4.336540   -3.638301   -0.953275
 H   -2.667560   -2.325841    0.346409
 H   -2.493306    1.053172   -1.196191
 H    1.469645   -0.563977   -0.205678
 H   -1.733716    4.345643    0.758401
 H   -3.132915    3.994927   -0.286710
 H   -1.621294    4.596476   -1.009308
 H    0.449461    4.220226   -0.058078
 H    4.325039    3.044524   -1.135107
 H    3.230160    4.303346   -1.762820
 H    4.481117    4.725153   -0.564181
 H    4.521281    2.433402    1.513584
 H    6.697882    1.009589    1.604648
 H    9.432570   -2.935410   -0.573949
 H    8.126125   -4.143139   -0.719887
 H    8.175296   -4.090783    1.668042
