43 
5jna_ligand_ani.xyz
 C   -1.450298    3.454721   -1.267084
 C   -0.926532    2.660701   -0.082859
 C   -1.267300    3.296450    1.249578
 O   -1.457599    1.332303   -0.151697
 O    0.485222    2.518473   -0.169052
 C    0.767416    1.222282   -0.657518
 C    2.134192    0.790736   -0.179435
 O    2.599150   -0.286924   -0.974877
 C    3.630903   -0.926623   -0.235890
 C    3.584275   -2.416018   -0.512177
 C    4.989319   -0.329092   -0.569541
 O    3.339931   -0.674850    1.143560
 C    2.205871    0.177840    1.221566
 C    0.967108   -0.665823    1.525157
 O   -0.218497    0.067701    1.246282
 C   -0.408243    0.401460   -0.104987
 C   -0.687459   -0.801866   -0.999832
 O   -1.428971   -1.824952   -0.324380
 S   -3.032665   -1.632350   -0.125042
 O   -3.481221   -2.950226    0.227941
 O   -3.544055   -0.905702   -1.265227
 N   -3.182447   -0.650390    1.181907
 H   -1.013316    4.457650   -1.265869
 H   -2.539658    3.537189   -1.209423
 H   -1.184435    2.949774   -2.200071
 H   -0.794880    4.281070    1.313789
 H   -0.898576    2.669655    2.064032
 H   -2.352004    3.411593    1.346556
 H    0.745597    1.201099   -1.757271
 H    2.801772    1.661507   -0.252103
 H    2.603169   -2.819601   -0.248654
 H    3.771940   -2.604688   -1.573150
 H    4.345592   -2.927591    0.083979
 H    5.755681   -0.815168    0.040623
 H    5.005526    0.742933   -0.352265
 H    5.218225   -0.482198   -1.628601
 H    2.355224    0.926543    2.004685
 H    0.924114   -0.932609    2.583373
 H    1.008302   -1.593796    0.940824
 H   -1.217165   -0.481346   -1.903427
 H    0.254578   -1.275337   -1.290265
 H   -2.576782   -0.943783    1.941840
 H   -3.000324    0.312267    0.906458
