43 
5jna_ligand_xtb.xyz
 C   -1.536208    3.577868   -1.164225
 C   -0.936344    2.678556   -0.086489
 C   -1.222453    3.196815    1.321270
 O   -1.472592    1.360093   -0.260381
 O    0.473539    2.560292   -0.252339
 C    0.770424    1.260757   -0.695378
 C    2.131951    0.816317   -0.182754
 O    2.629958   -0.228424   -0.985112
 C    3.594794   -0.924898   -0.209551
 C    3.483383   -2.418449   -0.509084
 C    5.008656   -0.409912   -0.495969
 O    3.284395   -0.655039    1.160148
 C    2.159925    0.188177    1.220386
 C    0.881976   -0.624438    1.487535
 O   -0.281452    0.116456    1.190604
 C   -0.426466    0.441448   -0.176722
 C   -0.728426   -0.803279   -1.039264
 O   -1.328301   -1.815643   -0.280795
 S   -2.939097   -1.685039   -0.103366
 O   -3.355889   -2.945699    0.393374
 O   -3.475568   -1.174377   -1.317928
 N   -3.171327   -0.568764    1.075668
 H   -1.154501    4.587047   -1.046082
 H   -2.617424    3.575799   -1.072191
 H   -1.264378    3.203202   -2.147118
 H   -0.700861    4.137802    1.466131
 H   -0.866285    2.471483    2.047886
 H   -2.290593    3.342149    1.449083
 H    0.788429    1.216941   -1.796609
 H    2.802473    1.689714   -0.218837
 H    2.471383   -2.765310   -0.320194
 H    3.729765   -2.595949   -1.551152
 H    4.170648   -2.962909    0.130395
 H    5.714275   -0.930574    0.143228
 H    5.065672    0.654914   -0.287029
 H    5.256173   -0.583687   -1.538541
 H    2.315694    0.933743    2.004660
 H    0.808084   -0.875346    2.546716
 H    0.906217   -1.551629    0.905602
 H   -1.408488   -0.509090   -1.845380
 H    0.201483   -1.204570   -1.451982
 H   -2.724508   -0.850559    1.931639
 H   -2.858404    0.343768    0.774855
