44 
5joh_ligand_xtb.xyz
 C   -2.687649   -0.218126    0.931520
 C   -0.954482   -0.974931    2.028722
 C    2.838661    0.147723    0.379155
 C    1.480354    0.223949    0.123339
 C    0.783899    1.526429    0.244444
 C    4.888530   -1.147193    0.534799
 C    0.511391    2.297812   -0.881894
 C   -0.161222    3.503158   -0.781258
 C   -0.575964    3.946798    0.462936
 C   -0.309367    3.194997    1.594623
 C    0.371091    1.995417    1.485754
 C   -3.539634    0.123786   -0.235899
 C   -3.796247   -1.104272   -1.121835
 C   -2.626153   -1.484224   -2.032030
 C   -1.332538   -1.938266   -1.330517
 N   -1.404140   -0.681404    0.783149
 N   -1.849531   -0.726091    2.941882
 C   -2.937046   -0.257184    2.275298
 C   -0.715748   -0.797573   -0.482462
 C    0.768696   -0.929026   -0.229607
 C    1.429125   -2.148936   -0.292289
 C    2.786032   -2.229376   -0.043434
 C    3.497766   -1.077338    0.286410
 N    6.015980   -1.203010    0.732934
 O   -1.503288   -3.119515   -0.590234
Cl    1.020373    1.724089   -2.443115
 H    0.021077   -1.372888    2.222610
 H    3.388023    1.038435    0.647182
 H   -0.357860    4.082443   -1.669656
 H   -1.107128    4.882590    0.544152
 H   -0.633313    3.538940    2.564381
 H    0.575255    1.404127    2.365690
 H   -3.075080    0.916424   -0.831771
 H   -4.490511    0.502836    0.141099
 H   -4.068763   -1.951942   -0.487551
 H   -4.653758   -0.896005   -1.765177
 H   -2.948386   -2.308706   -2.672130
 H   -2.380294   -0.639060   -2.678893
 H   -0.612818   -2.194702   -2.117141
 H   -3.827667    0.023931    2.800124
 H   -0.882152    0.135302   -1.036710
 H    0.876456   -3.045501   -0.525049
 H    3.297685   -3.178350   -0.098728
 H   -2.093942   -2.939472    0.151978
