21 
5jox_ligand_ani.xyz
 O    1.196801    1.791789   -0.710849
 C    1.339212    0.662233    0.137747
 C    0.376534    0.706964    1.346551
 N   -0.542336   -0.461726    1.212630
 C    0.921356   -0.575839   -0.657906
 O    1.623352   -1.730883   -0.210544
 C   -0.528996   -0.808359   -0.247781
 C   -1.560662    0.085642   -0.927903
 O   -2.680137    0.083965   -0.036651
 H    1.513851    2.565600   -0.228459
 H    2.386980    0.558235    0.458429
 H   -0.194539    1.636175    1.306447
 H    0.908626    0.671200    2.298630
 H   -0.216771   -1.271026    1.769658
 H   -1.529736   -0.220019    1.435281
 H    1.040885   -0.405986   -1.735113
 H    2.565028   -1.580812   -0.358247
 H   -0.786453   -1.858351   -0.384019
 H   -1.834870   -0.313863   -1.914846
 H   -1.160438    1.101802   -1.058528
 H   -3.301001    0.766310   -0.317533
