60 
5jq8_ligand_ani.xyz
 O    5.678994   -0.810303    0.676497
 C    4.353047   -0.642456    0.146095
 C    3.487009   -0.968137    1.354818
 N    3.927970   -2.326673    1.773184
 C    3.456515   -3.330071    0.772794
 C    4.179553   -3.085984   -0.555484
 C    4.138171   -1.619713   -1.028552
 C    2.929009   -1.272309   -1.910255
 N    1.616063   -1.539659   -1.356910
 C    0.758353   -0.547089   -0.952604
 C   -0.604048   -0.888101   -0.706333
 C   -1.456629    0.113108   -0.312880
 N   -0.908297    1.365370   -0.139605
 N   -1.601800    2.461887    0.276829
 C   -0.679892    3.414211    0.312845
 C    0.606106    2.979304   -0.059063
 C    1.935758    3.668702   -0.079450
 C    2.881838    3.070050    0.971700
 C    1.814467    5.181027    0.101912
 C    0.425172    1.620098   -0.354820
 N    1.279715    0.669481   -0.780044
 N   -2.794792    0.031305   -0.105767
 C   -3.461446   -1.258440   -0.011572
 C   -4.956450   -1.084584    0.115044
 C   -5.633406   -0.216581   -0.741912
 C   -7.014438   -0.078634   -0.662599
 C   -7.735306   -0.801544    0.284748
 C   -7.066647   -1.664855    1.146597
 C   -5.684177   -1.805781    1.058702
 H    6.316293   -0.717102   -0.043646
 H    4.188923    0.396758   -0.186562
 H    3.666643   -0.254170    2.159202
 H    2.426343   -0.973166    1.122208
 H    3.662764   -2.550440    2.739695
 H    4.970548   -2.253410    1.681754
 H    2.377588   -3.204845    0.641023
 H    3.642462   -4.341259    1.138555
 H    3.770057   -3.743932   -1.330419
 H    5.231596   -3.377107   -0.430476
 H    4.999431   -1.470626   -1.698456
 H    3.029649   -1.837182   -2.845126
 H    2.977023   -0.208628   -2.152157
 H    1.170415   -2.402042   -1.633315
 H   -0.948349   -1.910057   -0.822739
 H   -0.956960    4.417329    0.615793
 H    2.381661    3.477758   -1.067348
 H    2.928295    1.980192    0.867599
 H    3.891487    3.482508    0.868523
 H    2.512307    3.295402    1.979215
 H    2.796819    5.661716    0.033633
 H    1.391929    5.415059    1.085934
 H    1.162597    5.616162   -0.662308
 H   -3.167601    0.796875    0.444907
 H   -3.085160   -1.855070    0.835285
 H   -3.237413   -1.827626   -0.923395
 H   -5.066268    0.352865   -1.475329
 H   -7.529323    0.599819   -1.338856
 H   -8.814917   -0.691714    0.348979
 H   -7.622479   -2.232452    1.889490
 H   -5.165671   -2.484473    1.734153
