60 
5jq8_ligand_xtb.xyz
 O    6.158708   -1.425430    0.125680
 C    4.953191   -1.315563   -0.610535
 C    4.392507    0.062603   -0.257664
 N    4.302176    0.103296    1.217238
 C    3.251625   -0.835620    1.678923
 C    3.622347   -2.257417    1.284401
 C    3.936527   -2.402770   -0.211079
 C    2.701150   -2.353838   -1.155877
 N    1.421729   -2.364686   -0.488178
 C    0.628234   -1.242584   -0.457614
 C   -0.768489   -1.388999   -0.353049
 C   -1.561604   -0.257656   -0.278359
 N   -0.905358    0.936623   -0.292902
 N   -1.485307    2.137527   -0.201741
 C   -0.488806    3.004871   -0.226768
 C    0.763204    2.386589   -0.338254
 C    2.120670    3.018757   -0.355009
 C    2.622195    3.215248    1.082816
 C    2.115863    4.351395   -1.100370
 C    0.470302    1.026706   -0.381791
 N    1.248133   -0.068815   -0.466740
 N   -2.892522   -0.202388   -0.185782
 C   -3.777188   -1.345882   -0.178504
 C   -5.197500   -0.904416    0.053434
 C   -6.212236   -1.287788   -0.811466
 C   -7.515587   -0.879455   -0.585337
 C   -7.813296   -0.078117    0.503103
 C   -6.804540    0.310687    1.368772
 C   -5.503461   -0.102557    1.147139
 H    6.668727   -2.181535   -0.179674
 H    5.151094   -1.365304   -1.688118
 H    5.071029    0.842261   -0.604496
 H    3.384380    0.203838   -0.663146
 H    4.091071    1.057534    1.531612
 H    5.224663   -0.203015    1.562729
 H    2.322430   -0.534974    1.186994
 H    3.144917   -0.759047    2.761613
 H    2.800212   -2.919704    1.549284
 H    4.503630   -2.570877    1.848405
 H    4.417916   -3.377047   -0.337538
 H    2.754786   -3.210992   -1.830298
 H    2.747961   -1.450589   -1.769334
 H    0.913329   -3.233749   -0.527500
 H   -1.211096   -2.368965   -0.352094
 H   -0.706809    4.052137   -0.166395
 H    2.797253    2.334476   -0.879910
 H    2.485020    2.305508    1.670033
 H    3.669787    3.512962    1.092482
 H    2.046430    4.000540    1.566391
 H    3.123446    4.757861   -1.151896
 H    1.482276    5.073363   -0.593218
 H    1.744080    4.218156   -2.112939
 H   -3.296042    0.725068   -0.186855
 H   -3.467840   -2.029327    0.623998
 H   -3.701966   -1.885643   -1.131004
 H   -5.984046   -1.910779   -1.664173
 H   -8.298041   -1.185670   -1.262672
 H   -8.828901    0.242026    0.677747
 H   -7.032018    0.934014    2.220157
 H   -4.719938    0.194852    1.829656
