33 
5jqb_ligand_ani.xyz
 C   -3.317139    0.868260    0.007732
 C    2.965960   -0.798183   -0.394449
 C    3.774700    0.319115    0.295298
 C    3.269604    1.706426   -0.099822
 C    5.262369    0.167888   -0.025960
 C   -2.812323   -0.484778    0.468198
 C   -3.568048   -1.599038   -0.263020
 C   -1.311190   -0.542904    0.245926
 C   -0.445661   -0.803751    1.306910
 C    0.926976   -0.889647    1.103197
 C    1.472776   -0.727209   -0.172652
 C    0.599921   -0.462150   -1.231867
 C   -0.770487   -0.363304   -1.026663
 O   -3.084506    1.829162    0.920991
 O   -3.843442    1.094945   -1.055139
 H    3.345454   -1.767173   -0.038407
 H    3.170302   -0.760337   -1.473594
 H    3.649120    0.204530    1.382355
 H    3.390986    1.867395   -1.179592
 H    3.832084    2.490132    0.420287
 H    2.207752    1.829958    0.140453
 H    5.859020    0.932042    0.485318
 H    5.642486   -0.815762    0.274383
 H    5.434850    0.277908   -1.104453
 H   -3.003155   -0.549815    1.544742
 H   -3.386506   -1.540847   -1.340257
 H   -3.248327   -2.583760    0.091151
 H   -4.645202   -1.502306   -0.099083
 H   -0.855432   -0.935478    2.307443
 H    1.585057   -1.084230    1.949483
 H    1.002007   -0.325994   -2.233645
 H   -1.424104   -0.129877   -1.865583
 H   -3.417553    2.656407    0.535213
