67 
5jr6_ligand_ani.xyz
 C    1.481572   -1.968929   -0.335026
 C    0.720499   -3.299125   -0.570130
 N    1.371359   -1.197819   -1.598574
 O    1.104866   -3.790247   -1.835563
 C   -0.804814   -3.087013   -0.588767
 C    2.949313   -2.195081    0.063694
 C    3.672292   -0.899700    0.351646
 C    3.430562   -0.203899    1.541873
 C    4.075873    0.998043    1.808023
 C    4.952576    1.544084    0.874542
 C    5.184904    0.872045   -0.322564
 C    4.553029   -0.340601   -0.576623
 O   -1.446180   -3.343372   -1.605262
 N   -1.385131   -2.591656    0.530816
 C   -2.581273   -1.759324    0.431567
 C   -2.278145   -0.468986   -0.370882
 O   -1.247453   -0.377252   -1.043388
 C   -2.967867   -1.517206    1.911425
 C   -2.178218   -2.551128    2.718483
 C   -0.901132   -2.723578    1.900797
 N   -3.162450    0.556012   -0.337170
 C   -2.857399    1.805782   -1.063785
 C   -1.826081    2.664348   -0.296808
 O   -2.144566    3.645836    0.362696
 C   -4.209815    2.505300   -1.180363
 C   -4.989261    1.991900    0.030557
 C   -4.542233    0.535817    0.164567
 N   -0.541671    2.252894   -0.430524
 C    0.562267    2.916670    0.215176
 C    1.832181    2.556691   -0.568766
 O    1.953564    1.471383   -1.118190
 C    0.704778    2.497182    1.683864
 N    2.792979    3.512509   -0.601144
 H    0.998897   -1.381121    0.453224
 H    0.987672   -4.032063    0.207852
 H    1.653599   -1.839496   -2.362471
 H    0.375686   -0.935976   -1.723080
 H    1.929807   -0.330057   -1.561358
 H    0.262296   -3.970644   -2.294382
 H    3.458303   -2.755951   -0.728501
 H    2.967124   -2.826128    0.962329
 H    2.731771   -0.611569    2.270603
 H    3.893523    1.518345    2.746180
 H    5.427557    2.503995    1.062965
 H    5.850509    1.299507   -1.068056
 H    4.722293   -0.847964   -1.524075
 H   -3.364161   -2.306571   -0.107163
 H   -2.662585   -0.505342    2.198585
 H   -4.044099   -1.611582    2.081656
 H   -2.723016   -3.499923    2.761023
 H   -1.974891   -2.228320    3.743161
 H   -0.180837   -1.931941    2.152281
 H   -0.420631   -3.693073    2.060559
 H   -2.433342    1.548044   -2.042043
 H   -4.097800    3.591512   -1.181833
 H   -4.697815    2.207662   -2.115819
 H   -6.072227    2.085660   -0.084597
 H   -4.684580    2.551131    0.919815
 H   -4.581542    0.200668    1.201695
 H   -5.167604   -0.139037   -0.437476
 H   -0.352597    1.340642   -0.830673
 H    0.381021    3.996790    0.172704
 H    0.898859    1.420121    1.763679
 H   -0.223199    2.724382    2.214807
 H    1.526760    3.037931    2.166620
 H    3.675459    3.285182   -1.036081
 H    2.750695    4.321081   -0.003309
