52 
5jy0_ligand_ani.xyz
 N   -1.303112   -2.240581    0.282197
 C   -2.494218   -1.461750   -0.228220
 C   -1.862677   -0.283643   -0.980929
 O   -1.502916   -0.430681   -2.132950
 C   -3.464464   -1.108283    0.892556
 C   -4.577422   -0.126177    0.505598
 C   -5.382851   -0.618478   -0.697663
 C   -5.486951    0.120992    1.709171
 N   -1.593355    0.883320   -0.271847
 C   -0.252900    1.424938   -0.469059
 C    0.754763    0.447738    0.184827
 O    0.440281   -0.211841    1.175445
 C   -0.145245    2.843609    0.084181
 C    1.076711    3.575981   -0.415351
 O    1.188832    4.795912    0.131592
 O    1.875066    3.156853   -1.227796
 N    1.945684    0.349688   -0.438870
 C    2.900174   -0.727770   -0.245388
 C    2.349209   -2.009662   -0.866349
 O    3.306227   -2.752998   -1.439020
 C    3.327915   -0.953193    1.226453
 C    3.708142    0.373246    1.880994
 C    4.486089   -1.950703    1.300655
 O    1.186225   -2.346985   -0.851519
 H   -0.781451   -1.668661    0.982262
 H   -1.567447   -3.154692    0.695626
 H   -0.641708   -2.397195   -0.504647
 H   -2.979435   -2.066880   -0.994198
 H   -3.926565   -2.040061    1.244498
 H   -2.899996   -0.705532    1.746259
 H   -4.110698    0.827493    0.229038
 H   -6.203808    0.071580   -0.921562
 H   -5.820614   -1.604924   -0.495404
 H   -4.765926   -0.699987   -1.599200
 H   -5.974623   -0.810762    2.022893
 H   -6.273461    0.845355    1.469118
 H   -4.919964    0.508523    2.563036
 H   -1.861897    0.844525    0.705773
 H   -0.073170    1.448055   -1.547834
 H   -0.144931    2.861221    1.181079
 H   -1.025888    3.410165   -0.239206
 H    1.984162    5.200354   -0.254489
 H    2.155125    1.061692   -1.126997
 H    3.792208   -0.455701   -0.817496
 H    2.874708   -3.551960   -1.787202
 H    2.470019   -1.362589    1.769964
 H    4.503616    0.886995    1.325028
 H    4.074013    0.199539    2.898942
 H    2.844766    1.042027    1.947126
 H    5.332943   -1.607151    0.694042
 H    4.834212   -2.049887    2.334206
 H    4.193933   -2.941678    0.944124
