63 
5k0i_ligand_dft.xyz
 O    2.186549   -2.645025    0.152761
 C    4.326766    1.861307    0.748923
 O    2.089256   -5.357204   -0.167554
 C    4.624760    2.303530   -0.559416
 C    1.965866    2.029004    0.299376
 N   -1.591294    1.869343    0.391289
 C    3.609045    2.620915   -1.423846
 C   -0.119147    2.655244   -1.386571
 C    1.157262    2.817470   -1.835240
 C    2.263870    2.490855   -1.006935
 O   -2.939464   -2.164877   -0.862757
 C   -2.374825   -1.284925   -0.222785
 N   -1.037905   -1.072533   -0.329599
 C   -0.213843   -1.846013   -1.254921
 C    1.133641   -1.145646   -1.448325
 C    2.008325   -1.289412   -0.205319
 C    0.959553   -3.304203    0.450367
 C    1.362286   -4.716769    0.855944
 C    0.021167   -3.276600   -0.751347
 C   -3.180611   -0.373428    0.714405
 C   -3.832982    0.814846   -0.050022
 C   -4.593077    0.349927   -1.301803
 C   -4.865285    1.501987    0.864052
 C   -2.725166    1.793054   -0.518907
 C   -2.407444    0.125215    1.958164
 C   -1.825434    1.542172    1.787588
 C   -0.322119    2.120897   -0.070321
 C    3.032416    1.722448    1.197196
 C    2.718337    1.257995    2.591492
 N    0.690341    1.832239    0.728983
 H    5.145773    1.623911    1.423359
 H    2.776726   -4.726073   -0.422689
 H    5.660733    2.397862   -0.869615
 H    3.820125    2.973509   -2.430233
 H   -0.958028    2.948780   -2.005080
 H    1.338231    3.217438   -2.829910
 H   -0.607393   -0.315193    0.180011
 H   -0.755849   -1.894771   -2.204900
 H    0.991121   -0.085653   -1.688312
 H    1.647125   -1.611824   -2.296229
 H    1.564485   -0.743301    0.641652
 H    3.004006   -0.872219   -0.375214
 H    0.478769   -2.804197    1.309548
 H    1.948193   -4.664775    1.786583
 H    0.468966   -5.319163    1.046634
 H   -0.939195   -3.734847   -0.498950
 H    0.473185   -3.870863   -1.553084
 H   -3.995987   -1.025780    1.042209
 H   -3.947860   -0.177337   -2.007640
 H   -5.402304   -0.334448   -1.029489
 H   -5.034377    1.215966   -1.810053
 H   -5.653859    0.791457    1.134772
 H   -5.337358    2.338607    0.336598
 H   -4.442612    1.895595    1.791074
 H   -3.168532    2.786223   -0.694423
 H   -2.352824    1.425928   -1.480796
 H   -3.078757    0.126340    2.822886
 H   -1.607256   -0.583662    2.196577
 H   -0.874865    1.634986    2.308910
 H   -2.505615    2.292054    2.208895
 H    2.145894    0.324007    2.578998
 H    2.104486    1.994285    3.120492
 H    3.635966    1.091438    3.162635
