75 
5k0x_ligand_dft.xyz
 C   -0.047689   -3.276110   -1.456703
 C    1.331713   -2.621075   -1.361542
 C    2.463767   -3.641767   -1.487515
 C    3.859350   -3.023466   -1.419475
 C   -1.178530   -2.261322   -1.252141
 C   -2.520639   -2.976185   -1.171496
 C   -3.855479   -1.989320    0.730789
 C   -2.069489    3.183184   -1.740376
 C   -0.588149    3.158300   -1.453552
 C    0.034782    4.241892   -0.831529
 C    4.055891   -1.027578   -0.003467
 C   -5.050436    0.274783    0.701219
 C   -3.110912    1.339363   -0.470952
 C   -3.626824    0.856180    0.897589
 N    4.867329    0.946784    1.089429
 C    4.387867   -0.447712    1.383366
 C    3.173298   -0.429244    2.325482
 C    1.935309    0.355172    1.855638
 C    0.814919    0.299786    2.926121
 C   -0.439226   -0.498941    2.550333
 N   -1.466023    0.339857    1.908548
 C   -2.599270   -0.158407    1.418258
 N   -2.762438   -1.453748    1.390433
 N   -3.669824   -2.042855   -0.768377
 N    4.133089   -2.352726   -0.142864
 O    3.714853   -0.237714   -0.880157
 N   -5.136395   -1.189180    1.046246
 O   -3.016181    0.507413   -1.386247
 N   -2.788959    2.619185   -0.579909
 C    1.371949    4.168753   -0.451315
 C    2.053956    2.995165   -0.715828
 F    3.347258    2.900862   -0.298323
 C    1.486253    1.910487   -1.363079
 C    0.148516    2.002948   -1.726223
 H   -0.156978   -3.770404   -2.429351
 H   -0.122111   -4.062658   -0.693862
 H    1.438081   -1.852307   -2.137337
 H    1.412771   -2.103747   -0.393524
 H    2.362494   -4.408975   -0.709032
 H    2.387169   -4.163479   -2.448363
 H    4.623668   -3.792113   -1.555236
 H    3.991820   -2.275688   -2.204572
 H   -0.999983   -1.710852   -0.324286
 H   -1.193258   -1.533920   -2.071047
 H   -2.807475   -3.394002   -2.138743
 H   -2.505688   -3.786735   -0.438083
 H   -4.066683   -3.010081    1.062248
 H   -2.332621    2.582171   -2.611867
 H   -2.446878    4.195758   -1.896581
 H   -0.514933    5.161424   -0.648305
 H   -5.781216    0.789280    1.326240
 H   -5.365505    0.368792   -0.339167
 H   -3.689528    1.678704    1.616059
 H    5.827482    0.948070    0.728432
 H    4.844154    1.559280    1.909589
 H    4.268726    1.345329    0.338282
 H    5.214291   -0.977112    1.864640
 H    3.505058   -0.042335    3.297864
 H    2.903381   -1.477522    2.500050
 H    2.203881    1.399616    1.662980
 H    1.576514   -0.036992    0.896724
 H    1.211300   -0.155944    3.839270
 H    0.527884    1.313404    3.230504
 H   -0.197768   -1.322049    1.871112
 H   -0.891524   -0.943984    3.442480
 H   -1.364958    1.342807    1.988053
 H   -4.521069   -2.373616   -1.234088
 H   -3.445098   -1.062878   -1.121363
 H    4.485868   -2.913762    0.621048
 H   -5.255481   -1.299246    2.061366
 H   -5.981397   -1.597269    0.626926
 H   -2.916412    3.231257    0.215227
 H    1.875794    5.003769    0.022607
 H    2.083211    1.031809   -1.577827
 H   -0.324701    1.170315   -2.239096
