75 
5k0x_ligand_ani.xyz
 C   -0.392994   -3.101837   -1.912691
 C    1.062095   -2.716506   -1.635395
 C    1.993636   -3.920822   -1.492307
 C    3.443986   -3.543660   -1.173338
 C   -1.362034   -1.960456   -1.604183
 C   -2.824344   -2.374410   -1.763726
 C   -4.197132   -1.548353    0.152907
 C   -1.436656    3.642100   -1.048403
 C    0.065811    3.505420   -0.958966
 C    0.851588    4.501357   -0.376988
 C    3.783237   -1.440470    0.063725
 C   -4.905600    0.878786    0.507214
 C   -2.666160    1.675800   -0.203409
 C   -3.448805    1.061817    0.961488
 N    4.214983    0.710272    1.063391
 C    4.004064   -0.738696    1.421563
 C    2.893572   -0.947794    2.465209
 C    1.439319   -0.843374    1.992226
 C    0.466586   -0.930434    3.171201
 C   -0.980898   -1.192913    2.772507
 N   -1.586775   -0.055786    2.081202
 C   -2.762376   -0.223781    1.398266
 N   -3.153497   -1.418147    1.102831
 N   -3.793013   -1.324927   -1.292844
 N    3.594405   -2.780577    0.057629
 O    3.810504   -0.768329   -0.962184
 N   -5.328798   -0.584297    0.473539
 O   -2.592236    1.088912   -1.286839
 N   -2.129505    2.893992   -0.002384
 C    2.230674    4.351323   -0.260648
 C    2.807931    3.187728   -0.740935
 F    4.140662    3.026449   -0.613279
 C    2.060561    2.178273   -1.330226
 C    0.683792    2.344998   -1.426450
 H   -0.509244   -3.440669   -2.952462
 H   -0.657511   -3.962633   -1.279300
 H    1.434787   -2.042873   -2.420051
 H    1.090829   -2.134973   -0.705491
 H    1.612785   -4.583064   -0.701095
 H    1.985318   -4.511444   -2.418884
 H    4.052518   -4.451498   -1.099126
 H    3.853995   -2.924465   -1.975301
 H   -1.181111   -1.639487   -0.570265
 H   -1.151733   -1.092903   -2.246378
 H   -3.043839   -2.601891   -2.809391
 H   -3.014296   -3.282055   -1.182152
 H   -4.602150   -2.549514    0.217305
 H   -1.796337    3.259676   -2.007312
 H   -1.731542    4.693811   -0.971072
 H    0.382399    5.410999   -0.008424
 H   -5.575260    1.402810    1.183018
 H   -5.033314    1.305248   -0.483205
 H   -3.428573    1.767188    1.797881
 H    5.086494    1.100192    1.461939
 H    3.408164    1.290814    1.355562
 H    4.262969    0.698081    0.015905
 H    4.939265   -1.114197    1.841075
 H    3.071811   -0.230771    3.277349
 H    3.039425   -1.937424    2.913903
 H    1.259232    0.079020    1.422792
 H    1.230253   -1.672376    1.304561
 H    0.774985   -1.755086    3.827707
 H    0.527126   -0.016605    3.779578
 H   -1.018455   -2.045437    2.085646
 H   -1.568863   -1.475989    3.658701
 H   -1.454521    0.841829    2.529504
 H   -4.636457   -1.366584   -1.894460
 H   -3.340725   -0.381673   -1.409092
 H    3.579770   -3.276433    0.935243
 H   -5.680013   -0.837957    1.422056
 H   -6.108569   -0.724889   -0.190042
 H   -2.139138    3.292119    0.924272
 H    2.856406    5.113619    0.192933
 H    2.554082    1.282289   -1.694921
 H    0.073207    1.564195   -1.872202
