67 
5k1v_ligand_ani.xyz
 C    3.043410   -0.524149    0.187108
 C    1.733080    0.214442    0.496972
 C    4.855732    0.830434   -1.096425
 C    5.958028   -1.481183    0.958624
 C    0.543279    2.376215    0.239087
 C   -1.627250    4.087416   -0.043424
 C   -0.742777    1.859539    0.226524
 C   -2.954362   -2.630810   -0.980987
 C   -1.730768   -3.289893   -0.907823
 C   -6.361578   -2.394243    1.966043
 N    2.718334   -1.970801    0.286496
 O    0.824898   -0.424243    1.004183
 C    3.702136   -0.184680   -1.161131
 C    6.248561    0.234253   -0.822792
 N    6.481590   -0.275435    0.522800
 N    5.615122   -2.500349    0.254343
 N    5.736288   -1.519625    2.327424
 C   -3.216887    2.180918   -0.133242
 N    1.691869    1.550048    0.225079
 O   -4.081892    2.791499   -0.748676
 C    0.754357    3.770119    0.203326
 N    2.083001    4.248942    0.253280
 C   -1.832771    2.714689    0.055497
 C   -0.341931    4.610761    0.050088
 N   -3.442513    0.950778    0.398907
 C   -4.570750    0.155616   -0.004070
 C   -4.828699   -0.858939    1.091288
 O   -4.042323   -1.117389    1.974175
 C   -4.341525   -0.540457   -1.373821
 C   -3.041332   -1.309886   -1.420028
 C   -1.862043   -0.677417   -1.831374
 C   -0.632765   -1.316206   -1.754382
 C   -0.570051   -2.621900   -1.278342
 O    0.672757   -3.204104   -1.193797
 O   -6.019034   -1.448682    0.948335
 H    3.730542   -0.286146    1.005247
 H    4.644075    1.602397   -0.341266
 H    4.914331    1.356378   -2.056478
 H   -2.482672    4.737024   -0.200811
 H   -0.861504    0.786185    0.326206
 H   -3.860032   -3.158224   -0.684478
 H   -1.678506   -4.319212   -0.556066
 H   -6.399439   -1.910484    2.945398
 H   -5.629305   -3.204670    1.999222
 H   -7.344439   -2.776455    1.691828
 H    2.165266   -2.286430   -0.537687
 H    3.617963   -2.498131    0.359461
 H    2.123567   -2.091918    1.124216
 H    2.934968    0.161374   -1.868939
 H    4.080876   -1.125964   -1.581411
 H    7.006610    1.003686   -1.002305
 H    6.453403   -0.565150   -1.544277
 H    6.437070    0.451324    1.226244
 H    5.883115   -2.382093   -0.719899
 H    5.516411   -2.455975    2.639503
 H    6.442248   -1.077150    2.900787
 H    2.497349    1.974885   -0.216671
 H    2.580240    3.930687    1.080610
 H    2.116818    5.260934    0.222477
 H   -0.188888    5.687938   -0.011494
 H   -2.782973    0.512396    1.025782
 H   -5.440756    0.812477   -0.096647
 H   -5.199604   -1.188574   -1.582742
 H   -4.340544    0.251623   -2.131390
 H   -1.905456    0.346672   -2.198593
 H    0.285815   -0.812222   -2.043022
 H    0.563799   -4.126569   -0.925158
