67 
5k1v_ligand_dft.xyz
 C    2.959034   -0.439670    0.351543
 C    1.650192    0.267470    0.754150
 C    4.674324    0.771624   -1.193118
 C    5.878072   -1.505918    0.861735
 C    0.424088    2.391108    0.445133
 C   -1.750850    4.053208   -0.021676
 C   -0.853391    1.852437    0.385728
 C   -2.691977   -2.474641   -1.005799
 C   -1.407840   -3.008579   -1.037495
 C   -5.896448   -2.971682    1.813543
 N    2.689503   -1.892087    0.531037
 O    0.771606   -0.387522    1.296005
 C    3.442219   -0.146413   -1.087144
 C    6.049397    0.100287   -1.034857
 N    6.375981   -0.363107    0.304768
 N    5.343134   -2.504522    0.224203
 N    5.836485   -1.530540    2.236439
 C   -3.292983    2.082323   -0.123673
 N    1.588157    1.582715    0.462915
 O   -4.062928    2.579141   -0.934348
 C    0.626033    3.773496    0.333016
 N    1.963422    4.245821    0.368152
 C   -1.944703    2.683183    0.145421
 C   -0.477781    4.594820    0.099981
 N   -3.554135    0.915729    0.520418
 C   -4.599120    0.020896    0.090135
 C   -4.689778   -1.086537    1.127462
 O   -3.901605   -1.236039    2.033026
 C   -4.323951   -0.563835   -1.323953
 C   -2.946551   -1.170673   -1.435731
 C   -1.873865   -0.416783   -1.919243
 C   -0.584244   -0.936808   -1.964825
 C   -0.360978   -2.230906   -1.516948
 O    0.944233   -2.716980   -1.552499
 O   -5.726195   -1.889220    0.891385
 H    3.731019   -0.181600    1.082797
 H    4.599391    1.602595   -0.478217
 H    4.664938    1.230439   -2.187686
 H   -2.603343    4.683371   -0.251229
 H   -0.975965    0.780215    0.451710
 H   -3.509776   -3.087527   -0.635869
 H   -1.227997   -4.021390   -0.685463
 H   -6.037898   -2.586816    2.825451
 H   -5.022477   -3.627332    1.796794
 H   -6.784310   -3.503997    1.476758
 H    2.058142   -2.238332   -0.221311
 H    3.622053   -2.401537    0.511748
 H    2.179978   -2.025865    1.409790
 H    2.614263    0.302184   -1.645243
 H    3.656224   -1.093394   -1.593882
 H    6.823545    0.818347   -1.316202
 H    6.144849   -0.728066   -1.745435
 H    6.853581    0.291458    0.905168
 H    5.514495   -2.444981   -0.775468
 H    5.841856   -2.461157    2.630835
 H    6.385661   -0.861757    2.756392
 H    2.395262    2.052042    0.063418
 H    2.361855    4.181074    1.301169
 H    2.029740    5.211073    0.064196
 H   -0.330012    5.666225   -0.003894
 H   -2.947548    0.564275    1.249157
 H   -5.558370    0.547596    0.053791
 H   -5.100357   -1.300678   -1.548809
 H   -4.433005    0.259785   -2.033885
 H   -2.051161    0.596039   -2.270900
 H    0.239137   -0.352283   -2.363653
 H    0.914119   -3.673554   -1.686426
