68 
5k5e_ligand_dft.xyz
 O    3.640535   -1.553580   -2.446191
 C    4.034221   -1.456126   -1.295034
 C    5.133715   -2.366038   -0.763435
 C    5.066108   -2.535644    0.752103
 C    5.070408   -1.170974    1.438160
 C    4.016631   -0.270306    0.852268
 C    3.505668   -0.428454   -0.391058
 C    2.411173    0.462671   -0.926600
 C    2.197727    1.673405   -0.026149
 C    1.200962    2.616400   -0.586299
 O    0.374584    3.152445    0.343230
 C   -0.912995    3.566217   -0.133244
 C   -1.825016    2.342429   -0.103539
 O   -3.120499    2.712112   -0.574807
 C   -4.100041    2.402206    0.408414
 C   -3.477663    1.319388    1.283198
 C   -2.013778    1.758449    1.303231
 O    1.065613    2.804874   -1.774129
 C    2.743775    1.773012    1.200724
 C    2.535003    2.871421    2.204475
 N    3.602599    0.771220    1.649140
 C    1.074256   -0.264198   -1.067340
 C    0.392009   -0.256690   -2.294505
 C   -0.892515   -0.761618   -2.426056
 C    0.465387   -0.823170    0.049539
 C   -0.825384   -1.340324   -0.053849
 C   -1.501794   -1.294614   -1.289618
 N   -2.776807   -1.821442   -1.137883
 C   -3.847130   -1.667309   -2.101860
 C   -4.599293   -0.346875   -1.936604
 C   -2.953398   -2.153787    0.195000
 C   -1.758524   -1.895039    0.903557
 C   -1.700829   -2.139358    2.275053
 C   -2.828026   -2.627729    2.921886
 C   -4.008859   -2.873537    2.207266
 C   -4.090660   -2.641541    0.840263
 H    5.060941   -3.322181   -1.288002
 H    6.096415   -1.916851   -1.046997
 H    5.905533   -3.139048    1.111948
 H    4.144942   -3.066983    1.019587
 H    6.054309   -0.693513    1.322825
 H    4.898426   -1.283042    2.516259
 H    2.697882    0.806932   -1.925727
 H   -0.832217    3.983895   -1.137426
 H   -1.265799    4.330678    0.563329
 H   -1.416681    1.585738   -0.786675
 H   -5.008526    2.081976   -0.110819
 H   -4.339749    3.299803    0.999714
 H   -3.927327    1.257848    2.277697
 H   -3.572930    0.339491    0.806521
 H   -1.318165    0.943067    1.506019
 H   -1.858088    2.537132    2.060926
 H    3.485892    3.135912    2.681951
 H    1.839261    2.543857    2.985448
 H    2.116627    3.763666    1.744388
 H    4.047400    0.895583    2.544801
 H    0.879454    0.188137   -3.155608
 H   -1.404240   -0.715494   -3.381906
 H    0.980292   -0.820559    1.008212
 H   -3.408565   -1.743593   -3.100685
 H   -4.527441   -2.519028   -1.998427
 H   -3.910939    0.504583   -1.967454
 H   -5.343204   -0.225898   -2.730659
 H   -5.121384   -0.323455   -0.974178
 H   -0.786796   -1.941336    2.828460
 H   -2.798505   -2.818618    3.990192
 H   -4.881395   -3.251350    2.732053
 H   -5.014667   -2.826228    0.300930
