41 
5k5n_ligand_ani.xyz
 C   -4.005322   -1.615842    0.056514
 C   -3.677100    0.779054   -0.051250
 C    5.349234    0.122540    1.352506
 C   -1.112963    3.904339   -0.323174
 C    3.595326    1.270827   -0.099430
 O    1.158004    0.003724   -0.047089
 C    3.955434    0.745577    1.291419
 C   -1.771332   -0.691283   -0.059506
 C   -2.621554   -1.786369    0.013434
 C    6.334194   -2.049540   -1.188977
 C    4.786571   -2.058427    0.202983
 C   -2.285633    0.599922   -0.093062
 C   -4.522635   -0.307630    0.023079
 C   -1.416315    1.773793   -0.174388
 C   -0.069799    2.069169   -0.180972
 C    1.162368    1.230981   -0.110432
 C   -4.397493   -3.944048    0.153919
 N    5.253794   -2.776011   -0.798531
 N    6.553572   -0.951772   -0.494867
 N    0.083497    3.444653   -0.275646
 N    5.540870   -0.964277    0.399088
 N    2.312130    1.940592   -0.126035
 O   -2.071694    2.971886   -0.265573
 O   -4.898452   -2.622825    0.129764
Cl   -6.239719   -0.063538    0.074619
 H   -4.111326    1.773071   -0.075551
 H    5.552394   -0.247138    2.364420
 H    6.114956    0.861869    1.105065
 H   -1.435736    4.935038   -0.403017
 H    3.564871    0.440471   -0.810799
 H    4.350794    1.984080   -0.448003
 H    3.913577    1.566872    2.014301
 H    3.203878    0.009779    1.596814
 H   -0.697852   -0.835872   -0.088048
 H   -2.191597   -2.780882    0.037841
 H    6.984425   -2.337673   -2.008368
 H    3.913274   -2.290022    0.802567
 H   -3.827154   -4.172105   -0.755852
 H   -3.760819   -4.114806    1.031719
 H   -5.272403   -4.592564    0.207221
 H    2.246167    2.947099   -0.179698
