59 
5k76_ligand_dft.xyz
 C   -4.937362    1.395838    0.741347
 C   -3.409803    2.769006    0.181501
 N   -0.817525    2.507521   -0.652711
 C   -1.523017    1.406040   -0.394544
 C   -2.849781    1.450984    0.020291
 C   -3.888115    0.548052    0.399098
 C   -3.866472   -0.953264    0.375887
 C   -3.775865   -1.531669   -1.049832
 C   -3.775802   -3.055921   -1.017381
 C   -4.997740   -3.116603    0.979975
 C   -5.077396   -1.595529    1.062898
 C    2.750346    0.683383    0.614144
 C    3.268290   -0.668914    0.139044
 C    2.665200   -1.091892   -1.199382
 C    1.135660   -1.139758   -1.087008
 N    4.798179   -0.727086    0.058807
 C    5.462445   -0.831428    1.400914
 C    6.939173    0.138342   -0.811173
 N   -4.676078    2.726900    0.622082
 N   -2.699366    3.897970   -0.087429
 C   -1.468753    3.687179   -0.490229
 O   -4.905532   -3.581635   -0.351803
 N   -0.853205    0.169326   -0.570127
 C    0.584822    0.202751   -0.605842
 C    1.224542    0.606941    0.733484
 C    6.966415   -0.998153    1.214570
 O    7.508050    0.064300    0.472445
 C    5.437291    0.380969   -0.729756
 H   -5.919281    1.080468    1.087448
 H   -2.978004   -1.323019    0.928170
 H   -2.874378   -1.165872   -1.555363
 H   -4.639338   -1.175197   -1.624009
 H   -2.853197   -3.414598   -0.519133
 H   -3.796420   -3.479975   -2.026305
 H   -5.891815   -3.586347    1.401063
 H   -4.123957   -3.473582    1.557724
 H   -5.995573   -1.259789    0.565770
 H   -5.137330   -1.278982    2.110949
 H    2.995689    1.461946   -0.118257
 H    3.198300    0.969006    1.573211
 H    3.023172   -1.430482    0.889427
 H    3.057781   -2.072792   -1.503395
 H    2.932511   -0.367968   -1.979515
 H    0.844508   -1.939373   -0.390201
 H    0.700715   -1.388393   -2.058619
 H    5.006001   -1.598016   -0.442128
 H    5.024310   -1.681930    1.928322
 H    5.235619    0.087583    1.943471
 H    7.149693   -0.780805   -1.384236
 H    7.411754    0.975563   -1.327227
 H   -0.869654    4.569888   -0.719264
 H   -1.229068   -0.547064    0.039463
 H    0.847973    0.980615   -1.331998
 H    0.828413    1.585504    1.013535
 H    0.941831   -0.112301    1.515614
 H    7.182237   -1.963858    0.726055
 H    7.454422   -0.995588    2.190637
 H    5.229250    1.311705   -0.201218
 H    4.975196    0.411797   -1.717524
