19 
5k8n_ligand_ani.xyz
 C   -1.270285    1.534124   -0.080701
 C   -0.003149    2.081044   -0.103825
 C    1.145187    1.264691   -0.042577
 C    0.986669   -0.141625    0.004298
 C   -0.303415   -0.679343    0.062690
 C   -1.405471    0.152088    0.015655
 N   -2.746995   -0.439141    0.055543
 O   -3.699728    0.316944   -0.023615
 O   -2.828093   -1.650646    0.166018
 C    2.190625   -1.017467    0.034995
 O    3.284995   -0.660338    0.415808
 O    2.027737   -2.285946   -0.387356
 N    2.381332    1.840880   -0.075700
 H   -2.154654    2.157825   -0.126279
 H    0.118439    3.159484   -0.169650
 H   -0.476063   -1.741545    0.199061
 H    1.158243   -2.394783   -0.796334
 H    2.436065    2.827408    0.109700
 H    3.157356    1.258258    0.214551
