41 
5k8v_ligand_dft.xyz
 N    4.927990    0.131635    0.927323
 C    4.269237   -1.031326    1.007563
 N    3.079289   -1.355144    0.504630
 C    2.543723   -0.319713   -0.157726
 C    3.094034    0.943631   -0.330991
 C    4.357185    1.144026    0.257220
 N    5.016851    2.315938    0.157173
 N    2.252157    1.760643   -1.059015
 C    1.220716    0.999441   -1.315136
 N    1.330758   -0.271945   -0.796561
 C    0.408242   -1.396967   -0.891146
 C   -0.176431   -1.742997    0.485261
 O   -0.498355   -3.118397    0.571487
 C   -1.511441   -0.990649    0.469334
 O   -2.451504   -1.561395    1.343440
 C   -1.903865   -1.062722   -1.019576
 O   -0.656572   -1.049367   -1.728005
 C   -2.760883    0.069174   -1.565574
 C   -4.173628    0.135023   -0.966514
 N   -4.219993    0.513566    0.434034
 C   -3.767437    1.769000    0.821974
 N   -3.661774    2.834336    0.116931
 N   -3.364863    1.800449    2.156323
 H    4.780101   -1.814720    1.562649
 H    4.558550    3.114845   -0.249800
 H    5.869495    2.438084    0.678836
 H    0.348219    1.291234   -1.880867
 H    0.957695   -2.247796   -1.307851
 H    0.484921   -1.437475    1.300082
 H    0.299477   -3.600771    0.818456
 H   -1.363543    0.049885    0.775829
 H   -2.270515   -2.514968    1.339750
 H   -2.398898   -2.029575   -1.195561
 H   -2.837884   -0.061184   -2.651263
 H   -2.246840    1.021536   -1.387173
 H   -4.667748   -0.838314   -1.055956
 H   -4.781345    0.837005   -1.547255
 H   -3.900147   -0.235710    1.040213
 H   -3.913657    2.666555   -0.854178
 H   -3.261043    2.753235    2.479804
 H   -3.925003    1.239540    2.784912
