24 
5kab_ligand_ani.xyz
 N    4.325429   -1.409756   -0.093896
 C    3.121933   -1.945100    0.027364
 C    1.957572   -1.172734    0.022455
 C    2.045567    0.219874   -0.059786
 C    3.322483    0.776708   -0.238030
 C    4.407528   -0.075521   -0.237540
 S    0.309683   -1.738363    0.094436
 C   -0.263257   -0.098450   -0.003638
 C    0.739944    0.839595    0.001235
 C    0.461326    2.290926    0.069652
 O   -0.571336    2.799760   -0.307230
 O    1.431260    3.062666    0.602030
 N   -1.607861    0.221297   -0.072212
 C   -2.624515   -0.667892    0.037298
 C   -4.014725   -0.011058   -0.090367
 O   -4.991609   -0.896337    0.028034
 O   -4.160398    1.168192   -0.275165
 O   -2.525031   -1.868600    0.219553
 H    3.073169   -3.029156    0.127249
 H    3.465983    1.838503   -0.415624
 H    5.413018    0.325735   -0.346315
 H    2.089589    2.492830    1.026953
 H   -1.840077    1.207239   -0.219708
 H   -4.565822   -1.765674    0.169601
