13 
5kbh_ligand_dft.xyz
 C   -0.558498    1.417552    0.000074
 C    0.775485    1.821622   -0.000005
 C   -0.830852    0.056468    0.000052
 C    1.809290    0.896274   -0.000145
 C    0.182205   -0.895962    0.000071
 C    1.509410   -0.466926   -0.000025
 O    2.552106   -1.336001    0.000296
Cl   -2.493159   -0.489306   -0.000042
 H   -1.366526    2.139457    0.000170
 H    1.008886    2.881892    0.000033
 H    2.848530    1.205505   -0.000485
 H   -0.064487   -1.953769    0.000287
 H    2.218214   -2.241045   -0.001786
