14 
5kbi_ligand_ani.xyz
 C    1.906200   -0.655287   -0.001195
 C    0.720175   -1.387201   -0.000968
 C   -0.502420   -0.729041    0.000381
 O   -1.657451   -1.441658    0.001283
 C   -0.531890    0.674429    0.000260
 O   -1.788511    1.225607   -0.000641
 C    0.648622    1.399973    0.001576
 C    1.873655    0.732565    0.000784
 H    2.857212   -1.180917   -0.002992
 H    0.727079   -2.473672   -0.001976
 H   -2.392946   -0.810847    0.001527
 H   -1.720874    2.188243   -0.011723
 H    0.614468    2.488186    0.003561
 H    2.796709    1.304783    0.001433
