49 
5kbr_ligand_dft.xyz
 C    5.512833   -2.170096    0.781375
 C    6.415782   -1.555626   -0.080572
 C    6.042762   -0.468881   -0.860082
 C    2.079208    1.280920    0.145007
 C    2.913220    2.433992    0.195373
 C    0.944237    3.258411    0.067863
 C    0.763565    1.836774    0.076166
 C   -0.521481    1.331367    0.034983
 C   -1.579530    2.243736   -0.037191
 C   -1.286172    3.620692   -0.052479
 C   -2.952979    1.742759   -0.084898
 C   -4.174514    2.334506    0.346847
 C   -3.346442    0.500370   -0.522282
 C   -5.905740   -3.086787   -1.211259
 C   -5.878434   -2.794557    1.285558
 C   -5.160440   -1.467660    1.120556
Cl    8.053711   -2.177170   -0.194197
 C    4.742950    0.020258   -0.759018
 C    3.819344   -0.568340    0.106483
 C    4.216888   -1.677492    0.856585
 C    2.380007   -0.114502    0.210494
 O    1.519516   -0.997652    0.355775
 N   -0.064567    4.139765    0.001755
 N    2.272318    3.598698    0.151253
 N   -4.705763    0.412157   -0.369713
 N   -5.214624    1.527659    0.207082
 C   -5.461943   -0.801303   -0.235558
 N   -5.527803   -3.693192    0.120238
 C   -5.176614   -1.764858   -1.393463
 H    5.823149   -3.022193    1.377014
 H    6.755556   -0.014295   -1.539701
 H    3.995694    2.425985    0.295511
 H   -0.682313    0.258492    0.090695
 H   -2.105318    4.338603   -0.125531
 H   -4.317708    3.322303    0.764114
 H   -2.755183   -0.288250   -0.964879
 H   -6.991563   -2.960147   -1.186736
 H   -5.649187   -3.814261   -1.983988
 H   -6.966317   -2.684804    1.263388
 H   -5.591315   -3.320874    2.198243
 H   -4.076286   -1.606345    1.221745
 H   -5.467319   -0.793214    1.924426
 H    4.438476    0.857167   -1.378703
 H    3.483892   -2.153179    1.500188
 H   -6.516625   -0.504740   -0.261939
 H   -4.516015   -3.862997    0.130855
 H   -5.977032   -4.605901    0.230539
 H   -5.489720   -1.318755   -2.341233
 H   -4.100055   -1.957192   -1.476092
