68 
5kdr_ligand_ani.xyz
 C    4.691329   -1.433850   -1.416517
 C    4.454063   -0.799070   -0.059195
 C    4.368536   -1.788936    1.092046
 O    4.894571   -2.872227    1.189079
 N    3.570004   -1.189310    2.062968
 C    2.855608   -0.103857    1.595940
 O    2.094561    0.572811    2.260008
 C    3.168067    0.018453    0.101290
 C    3.275020    1.450890   -0.412307
 O    4.364622    1.912958   -0.683227
 C    2.018105    2.309492   -0.619752
 C    2.192005    3.762231   -0.103401
 C    3.068992    4.610735   -1.025255
 C    2.682458    3.828612    1.345284
 N    0.828107    1.708041   -0.057667
 C   -0.202327    1.296894   -0.852274
 O   -0.202871    1.441047   -2.067077
 C   -1.371567    0.633839   -0.146405
 C   -1.646979   -0.767523   -0.734887
 C   -0.480510   -1.720430   -0.547099
 C   -0.058140   -2.089361    0.732385
 C    1.014076   -2.957750    0.905438
 C    1.700613   -3.451312   -0.202437
 C    1.284575   -3.092506   -1.482767
 C    0.201176   -2.235821   -1.651219
 N   -2.859632   -1.341615   -0.160063
 C   -4.093431   -0.969073   -0.608745
 O   -4.231578   -0.061210   -1.416199
 C   -5.268893   -1.760453   -0.051219
 C   -6.590645   -1.007146   -0.177880
 C   -6.662992    0.242232    0.697461
 C   -7.988273    0.990346    0.569364
 C   -8.046578    2.234761    1.451663
 H    3.853134   -2.072711   -1.715089
 H    4.823199   -0.660763   -2.179951
 H    5.591953   -2.053358   -1.385253
 H    5.294865   -0.137780    0.182144
 H    3.473254   -1.553024    3.002818
 H    2.335851   -0.478058   -0.415070
 H    1.847880    2.344197   -1.702851
 H    1.172052    4.172538   -0.135531
 H    3.075750    5.650275   -0.678641
 H    4.095794    4.240035   -1.042271
 H    2.682202    4.604819   -2.051273
 H    2.610238    4.855043    1.722183
 H    3.731614    3.518495    1.415334
 H    2.097204    3.180064    2.007730
 H    0.873641    1.430292    0.917597
 H   -2.266542    1.235431   -0.337948
 H   -1.221283    0.576372    0.937481
 H   -1.812397   -0.619092   -1.805519
 H   -0.567088   -1.691755    1.610176
 H    1.305997   -3.253695    1.910033
 H    2.566482   -4.095477   -0.067664
 H    1.803838   -3.476770   -2.358950
 H   -0.112410   -1.954873   -2.654709
 H   -2.765763   -2.150669    0.438168
 H   -5.065685   -2.022784    0.996376
 H   -5.325512   -2.708764   -0.605261
 H   -6.724471   -0.722971   -1.228325
 H   -7.413283   -1.685777    0.083251
 H   -6.503687   -0.038344    1.749110
 H   -5.838452    0.913608    0.425718
 H   -8.139177    1.275482   -0.481026
 H   -8.816423    0.315239    0.827961
 H   -7.934195    1.971559    2.510052
 H   -8.997742    2.765004    1.337377
 H   -7.240363    2.932980    1.197412
