45 
5ke0_ligand_ani.xyz
 O   50.077248   17.322033    9.392927
 C   49.600811   16.213556    9.595758
 N   48.538386   15.957219   10.397142
 C   47.787597   17.056325   10.983884
 C   46.624452   17.502303   10.120351
 C   46.858057   18.282691    8.985851
 C   45.801590   18.674985    8.170453
 C   44.499712   18.288689    8.477179
 C   44.259029   17.507644    9.602887
 C   45.317734   17.118519   10.418871
 N   50.200325   15.100319    8.983950
 C   49.861826   13.754053    8.944837
 N   48.769352   13.344383    9.629525
 C   48.431882   12.057338    9.607888
 C   50.668897   12.901154    8.194214
 C   50.291315   11.559029    8.185262
 N   50.801401   10.469003    7.560081
 N   50.110776    9.335435    7.817425
 C   49.137678    9.679128    8.645699
 C   49.174247   11.096831    8.906416
 C   48.199342    8.693378    9.207317
 C   47.743683    7.612201    8.458763
 C   46.833753    6.712686    9.022883
 C   46.316878    5.549414    8.215515
 N   46.387656    6.830800   10.276783
 C   46.846777    7.856339   10.999461
 C   47.741502    8.802567   10.524605
 H   48.177920   15.005846   10.399269
 H   47.432107   16.747056   11.973770
 H   48.491104   17.883258   11.122864
 H   47.877074   18.579571    8.745044
 H   45.995640   19.286294    7.292727
 H   43.674403   18.595612    7.838936
 H   43.245202   17.201442    9.849683
 H   45.127112   16.508959   11.300791
 H   50.998025   15.380775    8.432509
 H   47.536757   11.770409   10.152324
 H   51.535766   13.262019    7.648432
 H   51.606949   10.430399    6.956402
 H   48.097716    7.463193    7.441537
 H   45.649954    4.939034    8.826606
 H   45.768625    5.899540    7.333063
 H   47.143185    4.924786    7.856890
 H   46.475822    7.922966   12.020274
 H   48.092734    9.597820   11.173954
