56 
5kej_ligand_ani.xyz
 N   -3.806402    0.349682   -0.095241
 C   -4.489582   -0.867786   -0.609185
 C   -5.933856   -0.469680   -0.895635
 O   -6.346821    0.661218   -0.790257
 O   -6.690898   -1.495188   -1.309019
 C   -4.385111   -2.077196    0.333373
 C   -2.968555   -2.645907    0.459297
 C   -2.024765   -1.680438    1.151542
 O   -2.418824   -0.898150    2.012423
 N   -0.713000   -1.699839    0.767724
 C    0.088114   -0.530335    1.051486
 C   -0.340349    0.673365    0.181167
 O   -1.066094    0.567719   -0.801738
 C    1.578687   -0.844245    0.918244
 S    1.992482   -1.422699   -0.755088
 C    3.743605   -1.806926   -0.489612
 C    4.663230   -0.587489   -0.471833
 C    6.131090   -0.972669   -0.297002
 C    7.062468    0.236854   -0.270488
 C    8.539461   -0.132793   -0.140920
 C    9.454885    1.089044   -0.113815
 N    0.167134    1.877858    0.565051
 C   -0.285949    3.082332   -0.089226
 C   -1.736725    3.415296    0.218585
 O   -2.081234    4.607821   -0.289743
 O   -2.505491    2.713306    0.833090
 H   -4.441813    1.162185   -0.191881
 H   -2.924131    0.520040   -0.609401
 H   -3.558166    0.226169    0.901599
 H   -4.049811   -1.134534   -1.576786
 H   -7.577465   -1.133340   -1.475942
 H   -5.053911   -2.854825   -0.040393
 H   -4.746638   -1.781124    1.323661
 H   -2.995228   -3.569917    1.050815
 H   -2.571524   -2.916280   -0.528188
 H   -0.489415   -2.183311   -0.094438
 H   -0.108331   -0.267692    2.097005
 H    1.831734   -1.631047    1.635398
 H    2.173126    0.042661    1.158380
 H    3.838423   -2.380309    0.441314
 H    4.026513   -2.483077   -1.303770
 H    4.537128   -0.026637   -1.407208
 H    4.365180    0.091276    0.339085
 H    6.252323   -1.547005    0.633517
 H    6.430698   -1.645967   -1.114239
 H    6.780055    0.896318    0.563400
 H    6.916284    0.827375   -1.187236
 H    8.821336   -0.786588   -0.977932
 H    8.684757   -0.723877    0.773964
 H    9.344373    1.682701   -1.029015
 H   10.507536    0.800546   -0.026776
 H    9.214386    1.741242    0.734091
 H    0.540821    1.965001    1.498252
 H   -0.196863    2.962676   -1.173596
 H    0.342931    3.924997    0.204497
 H   -3.013137    4.749262   -0.053414
