189 
5kgn_ligand_ani.xyz
 C    1.536462    1.813246    2.833548
 O    2.266072    0.986428    3.381208
 C    0.043517    1.769940    3.106430
 N    2.042277    2.726163    1.967863
 C    1.376922    3.818889    1.279325
 C    1.214687    5.038793    2.206723
 O    1.951480    5.220143    3.156333
 C    2.249199    4.201519    0.052654
 C    1.921898    3.418886   -1.206834
 C    1.616442    2.055508   -1.175216
 C    1.950471    4.054013   -2.454036
 C    1.360421    1.349866   -2.346686
 C    1.680230    3.365767   -3.629232
 C    1.356146    2.009485   -3.581024
 O    1.059059    1.369329   -4.732016
 N    0.253228    5.991813    1.924713
 C   -0.892456    6.031073    1.038872
 C   -1.887793    4.876789    1.264954
 O   -1.661481    3.953803    2.034599
 C   -0.520233    6.176567   -0.454826
 C    0.460318    7.301448   -0.698540
 O    1.426045    7.254506   -1.425235
 O    0.126124    8.418117   -0.023286
 N   -3.033079    4.918949    0.537000
 C   -3.873723    3.747178    0.375418
 C   -4.816506    4.052178   -0.801199
 O   -5.246640    5.190026   -0.942241
 C   -4.691245    3.408887    1.652344
 C   -5.304346    2.032506    1.541051
 C   -4.546592    0.887763    1.812486
 C   -6.600310    1.860967    1.044423
 C   -5.040915   -0.388936    1.555113
 C   -7.100200    0.601316    0.754972
 C   -6.316277   -0.522017    1.006516
 O   -6.838837   -1.742090    0.651921
 N   -5.191634    3.043527   -1.636293
 C   -4.437504    1.820489   -1.868931
 C   -3.049581    2.155301   -2.434812
 O   -2.840837    3.190299   -3.039323
 C   -5.290276    1.091169   -2.922980
 C   -5.902920    2.240369   -3.729248
 C   -6.189661    3.309703   -2.674204
 N   -2.065996    1.228232   -2.215900
 C   -2.233335   -0.171577   -1.920518
 C   -1.518143   -1.052754   -2.954807
 O   -0.671533   -0.588112   -3.708847
 N   -1.834152   -2.371547   -2.992060
 C   -2.889899   -3.042038   -2.252695
 C   -2.370967   -4.423274   -1.810718
 O   -1.935364   -5.226071   -2.633646
 C   -4.202341   -3.210907   -3.066725
 C   -5.357926   -3.226112   -2.096305
 O   -5.997718   -2.050655   -2.036638
 O   -5.622510   -4.169607   -1.380818
 N   -2.378766   -4.739753   -0.491012
 C   -2.989640   -4.022005    0.616997
 C   -1.967394   -3.139860    1.366149
 O   -1.990858   -3.057092    2.583278
 C   -3.682834   -5.027318    1.557169
 C   -4.891234   -4.501795    2.304765
 C   -4.773710   -3.828776    3.520782
 C   -6.176006   -4.723413    1.792346
 C   -5.900822   -3.426330    4.229883
 C   -7.308330   -4.337705    2.493604
 C   -7.173036   -3.687195    3.722073
 O   -8.309588   -3.318951    4.368579
 N   -1.099139   -2.456182    0.557000
 C    0.067347   -1.704910    0.993174
 C    1.293695   -2.608530    1.178176
 O    1.232046   -3.771195    1.532377
 C   -0.142388   -0.870354    2.263630
 S   -0.842291    0.754870    1.883142
 N    2.489154   -1.949134    0.990220
 C    3.741416   -2.677865    0.967630
 C    4.861036   -1.871293    1.647141
 O    6.038118   -2.104469    1.377114
 C    4.202002   -3.054888   -0.468130
 C    3.067187   -3.398026   -1.408889
 C    2.615642   -2.437090   -2.319107
 C    2.418327   -4.631579   -1.374739
 C    1.600957   -2.720597   -3.224999
 C    1.385132   -4.926171   -2.263142
 C    1.007741   -3.981993   -3.215450
 O    0.084615   -4.267462   -4.186532
 N    4.480344   -0.915775    2.530372
 C    5.337374    0.187786    2.988702
 C    5.566022    1.145050    1.804464
 O    4.995166    2.231135    1.733970
 C    6.636414   -0.241378    3.683153
 C    6.493607   -1.070196    4.975075
 C    6.148340   -2.540706    4.720800
 C    5.520706   -0.446721    5.978458
 N    6.404440    0.699658    0.828030
 C    6.321594    1.311429   -0.477042
 C    5.001755    0.924869   -1.178480
 O    4.213286    0.111058   -0.721329
 C    7.568111    0.977225   -1.314965
 C    7.752380   -0.494542   -1.618920
 C    8.593487   -1.285378   -0.836368
 C    7.100003   -1.103187   -2.695816
 C    8.816917   -2.627960   -1.135018
 C    7.305653   -2.441429   -3.004032
 C    8.177563   -3.206412   -2.228400
 O    8.354170   -4.512052   -2.581242
 N    4.794085    1.554605   -2.365760
 H   -0.423543    2.752730    3.089914
 H   -0.093339    1.326895    4.096846
 H    3.063687    2.732209    1.958224
 H    0.385165    3.487900    0.941856
 H    2.161186    5.270457   -0.169148
 H    3.301886    4.043420    0.337819
 H    1.593832    1.538804   -0.216175
 H    2.166588    5.119645   -2.503767
 H    1.154119    0.279040   -2.314005
 H    1.703196    3.861460   -4.597168
 H    0.559246    0.562810   -4.502877
 H    0.302076    6.737739    2.603400
 H   -1.424628    6.950797    1.304151
 H   -1.426156    6.410582   -1.026215
 H   -0.115623    5.253163   -0.875026
 H    0.800859    9.081780   -0.242508
 H   -3.354295    5.750086    0.057718
 H   -3.226899    2.886473    0.181312
 H   -5.450881    4.183537    1.803892
 H   -3.990803    3.452553    2.490864
 H   -3.536744    0.997509    2.214233
 H   -7.213618    2.739536    0.845240
 H   -4.431349   -1.271040    1.763974
 H   -8.091800    0.466226    0.332161
 H   -6.319888   -2.449484    1.072501
 H   -4.352801    1.244684   -0.936435
 H   -6.057270    0.505049   -2.403432
 H   -4.707930    0.402635   -3.545774
 H   -6.794179    1.941949   -4.287648
 H   -5.160568    2.624257   -4.436023
 H   -6.061423    4.332839   -3.038275
 H   -7.200181    3.227160   -2.252061
 H   -1.141554    1.561682   -2.461228
 H   -3.300666   -0.417279   -1.907494
 H   -1.830215   -0.422684   -0.928232
 H   -1.291607   -2.910592   -3.666704
 H   -3.107805   -2.427892   -1.374954
 H   -4.313525   -2.374208   -3.760558
 H   -4.168396   -4.149958   -3.625215
 H   -6.609901   -2.081124   -1.270952
 H   -2.001012   -5.656867   -0.292601
 H   -3.760582   -3.365338    0.200934
 H   -4.019137   -5.860907    0.928465
 H   -2.937454   -5.420102    2.256913
 H   -3.783403   -3.616589    3.909470
 H   -6.288951   -5.179977    0.812412
 H   -5.789305   -2.917911    5.187131
 H   -8.304736   -4.501595    2.095206
 H   -8.070782   -2.878090    5.193612
 H   -0.960626   -2.866649   -0.356861
 H    0.292300   -1.017092    0.163309
 H   -0.796047   -1.408032    2.949062
 H    0.812002   -0.692431    2.762117
 H    2.506650   -1.072287    0.472951
 H    3.572112   -3.587427    1.555417
 H    4.744475   -2.202152   -0.884596
 H    4.918173   -3.881096   -0.385190
 H    3.077031   -1.450749   -2.304305
 H    2.712385   -5.373562   -0.633736
 H    1.234171   -1.976842   -3.928025
 H    0.877301   -5.890415   -2.231589
 H   -0.535013   -4.929419   -3.825194
 H    3.487912   -0.744309    2.643563
 H    4.712224    0.759776    3.679017
 H    7.255857   -0.803907    2.978756
 H    7.179002    0.683311    3.922752
 H    7.494520   -1.052975    5.430124
 H    5.092777   -2.669170    4.463415
 H    6.747094   -2.955219    3.902895
 H    6.339978   -3.134561    5.621533
 H    5.516696   -1.012960    6.916498
 H    5.787836    0.591112    6.211973
 H    4.493281   -0.452196    5.588957
 H    6.586189   -0.301333    0.836588
 H    6.298887    2.395556   -0.315466
 H    7.519566    1.547921   -2.251286
 H    8.436974    1.353005   -0.764301
 H    9.087217   -0.842874    0.028006
 H    6.415065   -0.514915   -3.303604
 H    9.482741   -3.223294   -0.511614
 H    6.809506   -2.909865   -3.848376
 H    8.979983   -4.916963   -1.967860
 H    5.329436    2.372687   -2.613237
 H    3.886752    1.450310   -2.796515
