23 
5kh3_ligand_ani.xyz
 C    1.015273    1.296075    0.158211
 C   -3.420816   -0.508234   -0.940559
 C   -1.286078    0.789550   -0.511188
 C   -2.745997    0.860506   -0.874572
 C    1.809750   -0.929842   -0.402308
 C    2.291459    1.682867    0.562160
 O   -3.082556   -0.804754    1.478441
 C    3.322558    0.760377    0.483000
 C    3.069680   -0.532087    0.003982
 C    0.769469    0.001312   -0.325126
Cl    4.386885   -1.666660   -0.081262
 N   -0.543693   -0.243854   -0.700767
 S   -0.462406    2.209265    0.132305
 C   -3.805826   -1.138891    0.391664
 O   -4.717162   -1.917922    0.487895
 H   -2.753703   -1.212118   -1.455373
 H   -4.344861   -0.449809   -1.519060
 H   -3.266499    1.536256   -0.186958
 H   -2.807816    1.331311   -1.863053
 H    1.622364   -1.932628   -0.772773
 H    2.484368    2.685778    0.932362
 H   -2.353617   -0.206308    1.243209
 H    4.327973    1.031062    0.789328
