29 
5kh7_ligand_dft.xyz
 C    4.436548   -0.478775    0.081710
 C    0.496481    0.984562    0.038058
 C   -2.169605    1.852320   -0.049648
 N   -0.442365    0.207495    0.497525
 C   -1.090601    2.709334   -0.514042
 C    0.192323    2.289486   -0.480729
 N   -1.712654    0.631762    0.462420
 C   -2.677876   -0.355017    0.925512
 C   -2.859079   -1.486581   -0.094301
 C   -1.579693   -2.255502   -0.400208
 O   -1.049943   -2.274789   -1.478741
 O   -1.050850   -2.964745    0.620946
 O   -3.361533    2.121998   -0.086155
 C    1.870560    0.436835    0.046832
 C    2.099341   -0.925041   -0.168351
 C    2.978452    1.257507    0.271126
 N    4.238203    0.824202    0.290382
 C    3.406800   -1.387896   -0.147802
 H    5.472265   -0.810933    0.097064
 H   -1.381023    3.675004   -0.911413
 H    0.993937    2.911622   -0.865897
 H   -3.623024    0.167823    1.067868
 H   -2.330088   -0.725844    1.894792
 H   -3.222653   -1.071399   -1.035898
 H   -3.617126   -2.183206    0.285389
 H   -1.538271   -2.805266    1.439320
 H    1.267580   -1.594240   -0.366934
 H    2.844611    2.321325    0.463733
 H    3.628207   -2.436193   -0.317651
