69 
5khm_ligand_dft.xyz
 C    0.518746    2.183625    0.439654
 C    0.488659    0.320162    1.545472
 C    1.093613   -0.772566    2.230426
 N   -5.706168    0.168206   -0.660217
 C    5.495812   -1.536233   -0.482175
 C    4.723161   -0.576001   -1.405228
 C    5.093033    0.871485   -0.975695
 C    5.301296    0.983040    0.551055
 C    3.215796   -0.833871   -1.475853
 C    2.629380   -2.010634   -1.015813
 C    1.246254   -2.203329   -1.017320
 C    0.417525   -1.197980   -1.495708
 C   -1.555500   -2.158864   -0.576187
 C   -2.999245   -1.730601   -0.392084
 C   -7.041067    0.095113   -1.236494
 C   -5.526293   -0.199541    0.640719
 C   -4.104976   -0.092231    1.205278
 C   -3.890152   -0.966676    2.428872
 C    2.353351    0.125451   -2.028490
 O   -6.428262   -0.554526    1.375963
 C   -4.647539    0.514641   -1.593536
 C   -3.284705    0.690000   -0.941945
 N   -3.076010   -0.326607    0.134116
 O   -0.954294   -1.257850   -1.475335
 C    0.978806   -0.042313   -2.037709
 C    5.103147   -1.382205    1.010575
 N    4.561980   -0.044588    1.280405
 C    3.216752    0.134016    1.448399
 C    2.440167   -0.854870    2.186106
 N    2.680854    1.223886    0.949249
 N    1.331827    1.273777    1.045930
 N   -0.759995    0.643805    1.266679
 N   -0.736707    1.826568    0.560224
 O    1.028973    3.233067   -0.169814
 C    0.073510    4.110206   -0.769830
 H    0.480903   -1.485548    2.769503
 H    5.376701   -2.580617   -0.786304
 H    6.560960   -1.311868   -0.602793
 H    5.111949   -0.723170   -2.420381
 H    6.023731    1.161343   -1.473867
 H    4.330543    1.585456   -1.288280
 H    6.354975    0.836162    0.808692
 H    5.005574    1.965612    0.918802
 H    3.244738   -2.814004   -0.624728
 H    0.841669   -3.133621   -0.633060
 H   -1.539175   -3.186939   -0.960680
 H   -1.029955   -2.143372    0.388610
 H   -3.538259   -1.779184   -1.338678
 H   -3.491063   -2.402139    0.311040
 H   -7.320957    1.067622   -1.653818
 H   -7.070037   -0.655860   -2.034311
 H   -7.743620   -0.181657   -0.452573
 H   -3.942389    0.950689    1.500251
 H   -4.564918   -0.623088    3.213543
 H   -4.127989   -2.017668    2.250286
 H   -2.859809   -0.868540    2.783217
 H    2.756232    1.043848   -2.442182
 H   -4.901317    1.456709   -2.093716
 H   -4.607277   -0.248591   -2.383209
 H   -3.169996    1.663644   -0.464129
 H   -2.482502    0.569604   -1.669521
 H   -2.150527   -0.091802    0.597532
 H    0.325934    0.724737   -2.442099
 H    5.977519   -1.546634    1.648998
 H    4.360626   -2.132207    1.282041
 H    2.958792   -1.639174    2.722833
 H   -0.623514    4.487965   -0.017302
 H    0.654928    4.925730   -1.195608
 H   -0.481450    3.586767   -1.554271
