69 
5khm_ligand_ani.xyz
 C    0.809444    2.548365    0.405795
 C    0.275572    0.570844    1.113303
 C    0.569050   -0.696395    1.676917
 N   -6.009371    0.107991   -0.068897
 C    5.303523   -1.999789   -0.134178
 C    4.859700   -0.907803   -1.125507
 C    5.308744    0.449263   -0.517038
 C    5.248332    0.451449    1.026976
 C    3.364404   -0.964267   -1.463478
 C    2.584122   -2.103257   -1.248971
 C    1.194374   -2.082603   -1.357808
 C    0.546907   -0.897234   -1.699525
 C   -1.629311   -1.758499   -1.205562
 C   -3.044691   -1.203025   -1.166674
 C   -7.429685   -0.092276   -0.283283
 C   -5.391961   -0.665748    0.874201
 C   -3.888999   -0.438055    1.085745
 C   -3.239715   -1.603284    1.810965
 C    2.697806    0.156554   -1.974172
 O   -5.992280   -1.462318    1.578093
 C   -5.305189    0.813609   -1.128955
 C   -3.856913    1.116055   -0.764765
 N   -3.170863   -0.069325   -0.187639
 O   -0.799685   -0.716041   -1.698714
 C    1.318791    0.204630   -2.076109
 C    4.628420   -1.859127    1.250985
 N    4.251427   -0.473468    1.550654
 C    2.918539   -0.079200    1.495363
 C    1.878049   -1.014108    1.870060
 N    2.657274    1.153585    1.140853
 N    1.336449    1.424023    0.970563
 N   -0.818803    1.143163    0.643546
 N   -0.473413    2.418673    0.209656
 O    1.597459    3.576099    0.118746
 C    0.911707    4.701677   -0.442075
 H   -0.235134   -1.384245    1.875429
 H    5.128360   -3.002225   -0.538796
 H    6.391178   -1.919382   -0.010468
 H    5.412848   -1.051841   -2.065168
 H    6.339398    0.659960   -0.827890
 H    4.696320    1.274837   -0.888046
 H    6.210833    0.118602    1.431568
 H    5.059025    1.455562    1.412030
 H    3.044113   -3.042562   -0.953811
 H    0.636641   -2.988540   -1.138482
 H   -1.585681   -2.627018   -1.874886
 H   -1.299761   -2.064972   -0.202741
 H   -3.279987   -0.824277   -2.164524
 H   -3.768362   -1.983782   -0.923083
 H   -7.909779    0.867902   -0.500956
 H   -7.618173   -0.776181   -1.123050
 H   -7.865052   -0.522678    0.618737
 H   -3.806514    0.457636    1.712739
 H   -3.776112   -1.796003    2.741051
 H   -3.258646   -2.523289    1.220878
 H   -2.201225   -1.358603    2.056392
 H    3.266695    1.025613   -2.301990
 H   -5.831398    1.755513   -1.319927
 H   -5.342269    0.241043   -2.070497
 H   -3.808852    1.916081   -0.020464
 H   -3.304068    1.449353   -1.648710
 H   -2.209363    0.236718    0.084369
 H    0.811799    1.109696   -2.407138
 H    5.315784   -2.210603    2.030590
 H    3.742649   -2.493063    1.298465
 H    2.146460   -1.963566    2.316981
 H    0.151883    5.076610    0.250118
 H    1.678059    5.459450   -0.613064
 H    0.429349    4.427177   -1.385082
