37 
5khx_ligand_ani.xyz
 N   13.767954   16.477936  -13.257026
 C    9.812263   13.682909  -16.313491
 N    9.928588   13.091776  -17.634658
 C   12.692368   15.681194  -13.313442
 C    8.940947   15.076024  -19.258857
 C   12.600932   15.845157  -10.949749
 C   14.155434   16.939308  -12.065542
 N   11.916460   15.372935   -9.869907
 C   13.240083   15.472442  -15.661985
 N   12.313555   15.276219  -14.561935
 C   10.997264   14.741902  -14.843339
 C   10.226524   15.166270  -16.119417
 C   10.889631   13.270296  -15.296083
 S    8.771846   13.364377  -18.786622
 O    7.475893   13.220246  -18.148071
 O    9.159620   12.564223  -19.933294
 N   13.642547   16.684058  -10.872495
 C   12.039515   15.287808  -12.111192
 C   10.973270   14.419171  -11.656400
 C   10.940047   14.505668  -10.295292
 H    8.796911   13.494471  -15.957435
 H   10.859876   12.997630  -18.024445
 H    8.200968   15.248175  -20.044045
 H    8.731155   15.731805  -18.411660
 H    9.944157   15.248952  -19.657279
 H   15.015943   17.609084  -12.079369
 H   12.130774   15.622603   -8.917073
 H   12.886077   14.914410  -16.530497
 H   13.337393   16.535823  -15.914645
 H   14.234307   15.108781  -15.386604
 H   10.374007   14.935218  -13.970036
 H   10.878699   15.519630  -16.925448
 H    9.418736   15.890894  -15.970134
 H   10.611250   12.533977  -14.534920
 H   11.804406   12.935935  -15.795250
 H   10.327300   13.771162  -12.236719
 H   10.294300   14.017533   -9.576642
