37 
5khx_ligand_xtb.xyz
 N   13.863345   16.317157  -13.194725
 C    9.886512   13.817329  -16.386906
 N   10.116685   13.223991  -17.668288
 C   12.716880   15.633612  -13.289872
 C    8.681777   14.939819  -19.295278
 C   12.640853   15.758828  -10.910827
 C   14.311580   16.692794  -12.009923
 N   11.906429   15.335072   -9.855832
 C   13.230286   15.551153  -15.644223
 N   12.311900   15.330188  -14.550914
 C   10.989084   14.857205  -14.837823
 C   10.317388   15.284516  -16.162015
 C   10.824125   13.374706  -15.249680
 S    8.885971   13.212493  -18.775508
 O    7.697087   12.809949  -18.091697
 O    9.351253   12.461473  -19.899427
 N   13.759858   16.480779  -10.835296
 C   12.040807   15.272035  -12.100163
 C   10.915973   14.503800  -11.676895
 C   10.871737   14.568650  -10.318240
 H    8.833520   13.634555  -16.172083
 H   11.027671   13.356404  -18.074698
 H    7.878912   14.957879  -20.020135
 H    8.422304   15.531243  -18.428350
 H    9.605283   15.273470  -19.748541
 H   15.239949   17.249026  -12.014700
 H   12.120429   15.536474   -8.894277
 H   13.158768   14.732307  -16.360472
 H   13.033457   16.500857  -16.149074
 H   14.236468   15.591844  -15.233886
 H   10.349784   15.117157  -13.996109
 H   11.021559   15.622181  -16.917295
 H    9.521642   16.019516  -16.061942
 H   10.402789   12.704309  -14.506395
 H   11.748479   12.944365  -15.627364
 H   10.236556   13.939566  -12.283157
 H   10.173903   14.119300   -9.638990
