81 
5kj0_ligand_ani.xyz
 C    1.717787   -1.596266    0.348777
 C    0.848268   -0.716899   -0.324970
 C   -1.002744   -2.335185   -0.732941
 C   -5.303960   -1.390207   -0.350305
 C   -6.776859   -1.738828   -0.582015
 C   -6.787986   -3.271343   -0.604189
 C   -4.908957   -2.399479    0.742031
 C   -6.001359    1.457995   -1.762118
 C   -5.773378    2.274324    0.615857
 C    8.652474    2.858006    0.258424
 N    8.075500    1.536092   -0.010319
 C    7.848622    0.761111    1.251422
 C    7.940685   -0.749091    1.029252
 C    7.377429   -1.204202   -0.328422
 N    5.906147   -1.181409   -0.365676
 C    5.108084   -0.094863   -0.508361
 C    3.638559   -0.348271   -0.409840
 C    3.089069   -1.408611    0.315202
 O    1.207565   -2.676900    1.032886
 C    0.960600   -2.397060    2.400504
 N   -0.539117   -1.004486   -0.352594
 C   -1.491823   -0.077257   -0.015196
 N   -2.757604   -0.491340   -0.126720
 C   -3.726720    0.373908    0.167594
 N   -5.032722   -0.000888    0.027169
 C   -5.701323   -3.686048    0.420299
 C   -6.000622    1.051217   -0.270426
 C   -7.249412    2.237551   -2.167460
 N   -4.464798    2.540185    0.976711
 C   -4.188221    3.778972    1.692047
 O   -6.699823    2.999582    0.934932
 C   -3.423362    1.676047    0.640418
 C   -2.072768    1.979891    0.749994
 N   -1.101992    1.132485    0.409921
 C    1.408491    0.360331   -1.024070
 C    2.782709    0.538693   -1.060790
 O    5.538579    1.037523   -0.741247
 C    8.050163   -0.429275   -1.488016
 C    8.869539    0.766479   -0.998817
 H   -1.720337   -2.261092   -1.555571
 H   -1.504457   -2.828689    0.108372
 H   -0.141348   -2.931472   -1.033446
 H   -4.737083   -1.625896   -1.265656
 H   -7.366952   -1.390275    0.276634
 H   -7.191908   -1.289956   -1.492664
 H   -7.772864   -3.686443   -0.366468
 H   -6.522123   -3.634026   -1.604024
 H   -5.214435   -1.987934    1.710560
 H   -3.827724   -2.553472    0.774686
 H   -5.097350    2.044970   -1.968738
 H   -5.915938    0.545629   -2.365464
 H    7.992232    3.443428    0.902345
 H    9.622785    2.744184    0.757695
 H    8.804370    3.391969   -0.682911
 H    7.136884    1.655826   -0.424678
 H    6.865852    1.046822    1.633737
 H    8.599196    1.068892    1.987230
 H    7.425022   -1.269611    1.841954
 H    8.992004   -1.061921    1.078466
 H    7.629116   -2.261273   -0.437517
 H    5.446196   -2.076100   -0.289517
 H    3.705219   -2.092959    0.894762
 H    0.537849   -3.303854    2.839562
 H    1.888951   -2.137043    2.928517
 H    0.246515   -1.569607    2.501115
 H   -5.053558   -4.462884    0.000199
 H   -6.143135   -4.099897    1.332467
 H   -6.994884    0.691291   -0.000085
 H   -8.152488    1.633219   -2.018436
 H   -7.359555    3.153236   -1.578872
 H   -7.203068    2.512168   -3.225796
 H   -3.615767    3.571700    2.601489
 H   -5.145347    4.222971    1.956971
 H   -3.627529    4.477511    1.060333
 H   -1.747718    2.953595    1.113340
 H    0.767138    1.065322   -1.543494
 H    3.210552    1.380810   -1.595488
 H    8.709829   -1.099556   -2.050697
 H    7.277344   -0.077209   -2.175624
 H    9.121160    1.427450   -1.834054
 H    9.810966    0.444238   -0.536548
