62 
5kj2_ligand_dft.xyz
 C    3.569634    1.401294    0.155422
 C   -3.067146   -2.847273   -1.857168
 C   -5.478942   -2.646319   -1.952826
 C    4.567243   -0.813607    0.048341
 C    2.588072   -0.393390    1.374139
 C   -4.172034   -1.015812   -0.718566
 C    0.257961   -1.291313    1.561682
 C   -1.859910    0.812974    0.920045
 C    3.327738   -2.662106    1.403019
 C   -3.211245    1.645867   -2.301457
 C    8.469794    0.767300   -3.311825
 C   -4.153860    0.217304    0.169395
 C   -2.829453    2.080998   -0.889168
 C    2.569704    0.943120    0.999193
 C   -3.008103   -1.699184   -1.073229
 C   -5.401454   -1.500308   -1.170292
 C    3.563930   -1.259001    0.897951
 C    4.570028    0.536466   -0.321130
 C   -4.303339   -3.303491   -2.284349
 C   -0.021580   -0.086595    3.488630
 C    6.641410    0.480669   -1.734459
 C    2.319728   -2.463350    2.554085
 C    1.608555   -1.131241    2.247497
 C   -1.972075   -0.318420    1.958979
 C   -3.621605    3.311869   -0.446711
 N   -0.650516   -0.676681    2.388305
 N    5.529895    1.095319   -1.179444
 N    7.365040    1.322792   -2.553293
 N   -2.936016    1.018024    0.102501
 O    0.016774   -1.832135    0.506550
 O   -0.553727    0.567418    4.339379
 O   -0.837114    1.473671    0.853662
 O    6.978931   -0.669832   -1.515451
 O    1.283350   -0.406594    3.451885
 F   -4.367790   -4.407350   -3.043206
 F   -4.957015    3.132176   -0.553262
 F   -3.366197    3.633528    0.824746
 F   -3.307207    4.367188   -1.214515
 H    3.576905    2.446745   -0.144463
 H   -2.165787   -3.383453   -2.132095
 H   -6.428259   -3.027969   -2.312073
 H    5.340293   -1.475169   -0.317610
 H    2.888274   -3.274978    0.608051
 H    4.245050   -3.157874    1.733800
 H   -3.062058    2.478647   -2.993184
 H   -2.577374    0.813211   -2.613115
 H   -4.254673    1.328140   -2.370645
 H    9.095841    0.176051   -2.642843
 H    8.135797    0.116662   -4.129786
 H    9.062926    1.588247   -3.721000
 H   -4.328111   -0.064916    1.212498
 H   -4.991948    0.866698   -0.091524
 H   -1.783397    2.392472   -0.871630
 H    1.789241    1.613088    1.345842
 H   -2.032022   -1.354270   -0.744932
 H   -6.317265   -0.973854   -0.911514
 H    1.619850   -3.295075    2.667132
 H    2.844442   -2.325559    3.504064
 H   -2.525380    0.036301    2.833617
 H   -2.460793   -1.207900    1.557347
 H    5.461364    2.095097   -1.297005
 H    6.868129    2.084677   -2.990667
