79 
5kjm_ligand_xtb.xyz
 C  -55.789762   12.522406   -1.369404
 C  -57.028176   12.003224   -1.708533
 C  -58.151835   12.802698   -1.670861
 C  -56.579765   16.121478   -0.770266
 C  -55.647181   16.524979    0.229269
 C  -55.352363   17.846776    0.441226
 C  -55.990181   18.781137   -0.405165
 C  -55.993247   20.152447   -0.624423
 C  -56.920398   18.267811   -1.383780
 C  -54.385484   18.221893    1.515362
 O  -53.429690   17.529678    1.801807
 N  -54.662016   19.400285    2.127186
 C  -53.912930   19.864830    3.271945
 C  -54.687367   19.698130    4.579611
 C  -55.013216   18.230951    4.861726
 C  -56.286706   16.755155    7.963883
 C  -60.252669   17.014699   -0.539226
 C  -59.546390   15.731744   -0.106197
 C  -62.313436   17.781274   -1.580961
 C  -63.793079   17.352727   -1.596031
 C  -64.209513   16.906769   -0.227320
 C  -55.692995   13.854963   -1.020072
 C  -64.985450   17.712929    0.595470
 C  -65.313193   17.311415    1.877884
 C  -63.761611   15.685990    0.261733
 C  -56.809550   14.686935   -1.000818
 C  -58.079791   14.152841   -1.306545
 C  -64.855137   16.097056    2.363699
 C  -64.072178   15.285466    1.549193
 C  -57.356609   17.813286    7.672139
 C  -55.537141   16.662616    6.641671
 C  -56.779706   18.626491    6.501073
 C  -60.392806   14.588304   -2.011115
 C  -61.092884   15.879935   -2.437833
 N  -56.863116   20.363534   -1.628447
 N  -57.207440   16.974414   -1.546479
 N  -57.439045   19.268236   -2.100221
 N  -59.212362   14.938588   -1.263987
 N  -55.472423   18.049251    6.217909
 N  -61.455479   16.657287   -1.268158
Cl  -65.259099   15.603800    3.967315
Cl  -63.480278   13.774272    2.135231
 H  -54.908497   11.899987   -1.389216
 H  -57.122347   10.963966   -1.988463
 H  -59.110098   12.365823   -1.905729
 H  -55.182208   15.780876    0.857334
 H  -55.440997   20.955133   -0.178582
 H  -55.547682   19.845345    1.944862
 H  -52.995948   19.272176    3.298930
 H  -53.654459   20.918659    3.122593
 H  -54.081077   20.080894    5.400695
 H  -55.608907   20.283680    4.536635
 H  -55.756379   17.863138    4.126183
 H  -54.103893   17.637642    4.736604
 H  -56.710937   15.802412    8.273958
 H  -55.608000   17.109011    8.739017
 H  -59.564303   17.611772   -1.157339
 H  -60.537177   17.587363    0.347293
 H  -60.233585   15.163222    0.543810
 H  -58.648479   15.966424    0.463297
 H  -62.056018   18.238438   -2.549892
 H  -62.187115   18.542061   -0.807014
 H  -64.401430   18.197346   -1.921066
 H  -63.923527   16.537656   -2.308176
 H  -54.722537   14.276562   -0.801820
 H  -65.342590   18.665544    0.233394
 H  -65.921802   17.936920    2.511707
 H  -63.148269   15.055419   -0.359040
 H  -57.552457   18.437855    8.541632
 H  -58.293624   17.339837    7.378902
 H  -56.093928   16.034854    5.923243
 H  -54.529135   16.258605    6.747354
 H  -56.658885   19.681959    6.757320
 H  -57.445521   18.561584    5.623594
 H  -61.088422   13.980036   -1.409287
 H  -60.109375   14.032252   -2.905187
 H  -60.411053   16.446338   -3.095341
 H  -61.996692   15.632351   -2.998717
 H  -57.096952   21.252161   -2.046980
