50 
5kkr_ligand_xtb.xyz
 C   -1.376508    0.573788    0.164683
 C   -2.761833    0.267087   -0.015388
 C   -3.574168    1.352383   -0.419569
 N   -3.070154    2.596838   -0.586354
 N   -0.922675    1.805578    0.003549
 C   -7.672911    0.612326   -1.125674
 O   -6.808131   -0.407047   -0.685806
 C   -5.506169   -0.095704   -0.482227
 C   -4.946985    1.142915   -0.653722
 C   -4.691056   -1.188722   -0.046323
 O   -5.358522   -2.362802    0.111730
 C   -4.640219   -3.490329    0.542737
 C   -3.352084   -0.998304    0.176007
 C   -1.798555    2.744117   -0.352004
 N   -0.493754   -0.406812    0.499080
 C    0.897050   -0.246869    0.642537
 C    1.447324    0.644762    1.569376
 C    0.588729    1.470558    2.470110
 C    2.827880    0.732136    1.656131
 C    1.733416   -1.066806   -0.108917
 C    3.106201   -0.984416   -0.000380
 C    3.661900   -0.057221    0.874168
 O    5.010721    0.054021    1.089787
 C    5.894377   -0.127673    0.059033
 C    7.154427   -0.617856    0.389452
 C    8.116044   -0.766747   -0.591273
 C    7.832212   -0.432041   -1.905056
 C    6.582510    0.067053   -2.230001
 C    5.612933    0.225309   -1.256637
 H   -7.739604    1.424149   -0.394700
 H   -7.353340    1.019543   -2.090054
 H   -8.648627    0.142246   -1.235654
 H   -5.522577    1.997639   -0.966330
 H   -3.855560   -3.766290   -0.170453
 H   -4.194681   -3.332719    1.531007
 H   -5.368790   -4.296947    0.602576
 H   -2.745060   -1.821253    0.520462
 H   -1.388718    3.740114   -0.470228
 H   -0.788279   -1.347815    0.281950
 H    0.171045    2.307591    1.911909
 H   -0.244498    0.881451    2.849738
 H    1.168003    1.853171    3.305916
 H    3.281787    1.414835    2.357923
 H    1.297975   -1.782240   -0.793059
 H    3.741565   -1.634518   -0.582955
 H    7.359305   -0.871298    1.417970
 H    9.091016   -1.149380   -0.328282
 H    8.583216   -0.553618   -2.670817
 H    6.358201    0.343126   -3.249784
 H    4.644074    0.631132   -1.509124
