58 
5kmf_ligand_xtb.xyz
 C    4.409253    1.667997    0.969241
 C    3.126967    1.919674    0.180660
 C    0.695672    4.639833    0.359558
 C   -4.721560   -1.026040   -0.471072
 O   -3.975510   -0.003096    0.142757
 C   -3.925107    1.174798   -0.627506
 C   -3.453448    2.339159    0.240216
 O   -2.105127    2.196079    0.666480
 C   -1.143102    2.474445   -0.215994
 O   -1.341889    2.843433   -1.342702
 C    0.214108    2.188754    0.397046
 C    1.133823    3.386578    0.446558
 N    2.451999    3.075359    0.744702
 C    2.198069    0.703690    0.243234
 C    0.867487    1.071144   -0.432289
 C   -0.036647   -0.121411   -0.580423
 C   -0.598448   -0.742797    0.524878
 C   -1.440898   -1.829492    0.346698
 C   -1.720128   -2.334698   -0.916595
 C   -1.150956   -1.720713   -2.015297
 C   -0.324483   -0.620799   -1.847260
 N   -2.045226   -2.439845    1.501027
 O   -2.951372   -3.225200    1.310692
 O   -1.611145   -2.142506    2.592126
 C    2.791341   -0.479972   -0.498903
 O    3.254002   -0.429896   -1.608802
 O    2.697931   -1.580196    0.238050
 C    3.158490   -2.821909   -0.327156
 C    3.680060   -3.669597    0.823394
 C    2.008028   -3.494793   -1.066896
 H    4.930013    0.802870    0.567781
 H    4.176095    1.489129    2.015900
 H    5.070239    2.528857    0.903103
 H    3.387785    2.083355   -0.880029
 H   -0.344901    4.867063    0.233822
 H    1.370251    5.475665    0.423084
 H   -5.771932   -0.731682   -0.584117
 H   -4.656627   -1.896274    0.178947
 H   -4.316870   -1.272988   -1.459932
 H   -3.246839    1.044783   -1.484043
 H   -4.926172    1.421986   -1.011220
 H   -3.556966    3.268937   -0.328775
 H   -4.040094    2.377078    1.158810
 H    0.044546    1.840822    1.420893
 H    3.046653    3.893438    0.762519
 H    2.022759    0.409956    1.280550
 H    1.084324    1.468116   -1.429986
 H   -0.414095   -0.394831    1.529068
 H   -2.369417   -3.190685   -1.016025
 H   -1.353577   -2.094753   -3.007426
 H    0.106496   -0.139605   -2.712747
 H    3.963916   -2.588060   -1.035061
 H    4.053652   -4.616008    0.444112
 H    4.485280   -3.152968    1.339020
 H    2.879018   -3.860291    1.532706
 H    2.341341   -4.440874   -1.483082
 H    1.181757   -3.676750   -0.383606
 H    1.659703   -2.856949   -1.875741
