84 
5kos_ligand_ani.xyz
 C    4.681685   -0.926818   -0.788821
 C    3.575565   -0.716455   -1.825037
 C    1.631548    0.029242   -0.550135
 C   -0.457178   -1.413399   -0.312148
 C   -0.515922   -3.048446    2.758027
 C   -2.565736   -2.609944    0.334389
 C   -2.528860   -3.451702   -0.948809
 C   -4.075934   -1.974145   -2.151004
 C   -3.178441    0.174680   -1.250172
 C    7.300140   -2.124212    0.143557
 O    7.120037   -0.872518   -0.467692
 C    6.073653   -0.849762   -1.412787
 N    2.248194   -0.924833   -1.276445
 N    2.291683    1.168880   -0.305845
 C    1.652678    2.148637    0.341182
 N    0.414148    2.082790    0.827157
 C   -0.216858    0.914755    0.641281
 C    0.318209   -0.166341   -0.029874
 O   -0.308556   -2.003169   -1.388474
 N   -1.313981   -1.881643    0.661505
 C   -1.020213   -1.754844    2.091652
 C    0.797427   -3.541662    2.149273
 C   -0.369484   -2.813117    4.261952
 N   -2.742719   -2.634646   -2.181809
 C   -4.137928   -0.988180   -0.981890
 C   -3.830598   -1.721265    0.339866
 O   -2.250051    0.036082   -2.040529
 N   -3.375816    1.357838   -0.590119
 C   -2.634611    2.529704   -1.066903
 C   -2.457113    3.534195    0.063148
 O   -3.696807    3.865289    0.658206
 C   -4.311713    2.718727    1.207886
 C   -4.606030    1.677532    0.134068
 C    2.428802    3.440298    0.506441
 C    2.823929    3.960777   -0.883450
 C    1.590391    4.495456    1.228818
 C    3.703170    3.146365    1.311717
 H    4.592920   -0.159806   -0.009826
 H    4.531146   -1.902839   -0.310858
 H    3.633849    0.304003   -2.227334
 H    3.697130   -1.420874   -2.656899
 H   -1.276455   -3.829959    2.615722
 H   -2.692676   -3.314465    1.163865
 H   -3.344554   -4.183566   -0.876385
 H   -1.588040   -3.991583   -1.021861
 H   -4.851552   -2.738727   -2.013912
 H   -4.264046   -1.468949   -3.098033
 H    6.471453   -2.387303    0.817251
 H    8.218916   -2.066280    0.732861
 H    7.408363   -2.926590   -0.603825
 H    6.204730   -1.664867   -2.146590
 H    6.192223    0.098904   -1.949504
 H    1.650217   -1.653687   -1.646420
 H   -1.222653    0.844468    1.051785
 H   -1.928046   -1.415595    2.613394
 H   -0.257170   -0.983240    2.222622
 H    0.682457   -3.831659    1.099503
 H    1.571285   -2.764378    2.205019
 H    1.163871   -4.416805    2.696894
 H    0.382312   -2.039691    4.462940
 H   -1.315552   -2.489418    4.710384
 H   -0.049992   -3.728399    4.771769
 H   -2.023610   -1.888576   -2.230577
 H   -2.641699   -3.220296   -3.018058
 H   -5.154758   -0.584236   -0.930728
 H   -3.776448   -1.012753    1.174172
 H   -4.678834   -2.389621    0.542475
 H   -3.166800    3.013026   -1.902796
 H   -1.663584    2.193406   -1.437989
 H   -2.044326    4.470994   -0.328948
 H   -1.749993    3.136917    0.808096
 H   -3.672073    2.281422    1.991355
 H   -5.244907    3.052525    1.672198
 H   -5.001604    0.779705    0.614063
 H   -5.378143    2.074705   -0.543135
 H    1.937431    4.185506   -1.488006
 H    3.408160    4.881941   -0.780622
 H    3.429559    3.222164   -1.417339
 H    1.306888    4.153776    2.227805
 H    2.166085    5.422167    1.324507
 H    0.672596    4.714706    0.674151
 H    3.460668    2.772369    2.313005
 H    4.324418    2.401936    0.803881
 H    4.289832    4.064899    1.423378
