62 
5kq5_ligand_ani.xyz
 O   -0.855429   -1.824884   -1.772980
 C    0.155493   -2.468944   -1.019278
 C   -0.372731   -3.295874    0.159949
 C   -1.502787   -2.608770    0.904793
 C   -2.561452   -2.082365   -0.070831
 C   -1.951638   -1.149890   -1.144687
 C   -2.926893   -0.953594   -2.301924
 N   -1.528842    0.150381   -0.585019
 C   -0.211825    0.584667   -0.482781
 C    0.980700   -0.150627   -0.475230
 C    2.203785    0.468126   -0.197572
 C    2.231438    1.854403    0.009608
 C    1.056888    2.593882   -0.005988
 C   -0.168540    1.956909   -0.224497
 C   -1.527939    2.401811   -0.179929
 C   -2.335952    1.276236   -0.378194
 C   -3.730883    1.385624   -0.293502
 C   -4.280653    2.638110   -0.093788
 C   -3.474954    3.778899    0.054582
 C   -2.102154    3.665639    0.019661
 C    1.368213    4.047068    0.253576
 N    2.802741    4.010501    0.415554
 C    3.376748    2.774823    0.278845
 O    4.570166    2.547018    0.367648
 C    3.184051   -0.576959   -0.148126
 C    2.510199   -1.781348   -0.397985
 C    3.179964   -3.008579   -0.410271
 C    4.541987   -3.001438   -0.171624
 C    5.230628   -1.801392    0.075949
 C    4.563644   -0.592541    0.089838
 N    1.166710   -1.511535   -0.601958
 O   -3.499924   -1.351693    0.695879
 C   -4.605404   -2.105516    1.146174
 N   -1.095611   -1.419100    1.731780
 C   -0.743371   -1.677240    3.130701
 H    0.645852   -3.135940   -1.733629
 H    0.459526   -3.506567    0.840113
 H   -0.740727   -4.247877   -0.233101
 H   -1.974476   -3.329956    1.582880
 H   -3.040062   -2.917244   -0.598075
 H   -2.491115   -0.231860   -2.995725
 H   -3.030127   -1.912570   -2.818250
 H   -3.918372   -0.619790   -1.990855
 H   -4.365607    0.511408   -0.344390
 H   -5.361365    2.740288   -0.048228
 H   -3.935391    4.750767    0.207849
 H   -1.475000    4.543872    0.144270
 H    0.874328    4.421391    1.160379
 H    1.081138    4.692350   -0.587770
 H    3.376531    4.819625    0.591157
 H    2.647336   -3.937213   -0.598647
 H    5.090213   -3.939834   -0.177468
 H    6.301572   -1.828181    0.259227
 H    5.078796    0.344041    0.278592
 H   -4.302053   -2.861189    1.885893
 H   -5.124760   -2.601030    0.312193
 H   -5.294525   -1.403013    1.623695
 H   -0.297904   -0.945444    1.256876
 H   -1.906645   -0.768259    1.659505
 H   -1.510870   -2.283795    3.621684
 H   -0.646335   -0.739683    3.682075
 H    0.207186   -2.216268    3.208060
