36 
5kqf_ligand_ani.xyz
 C    3.541543   -1.563951   -0.901926
 C    3.417514   -0.240489   -1.288242
 C    2.535911    0.579019   -0.593086
 C    1.770047    0.110089    0.479527
 C    2.817645   -2.084311    0.155664
 C    1.953085   -1.229055    0.821356
 C   -4.720107   -1.924335   -0.252573
 C    1.259867    1.159543    2.703624
 C    0.787726    1.001318    1.259188
 C   -0.634127    0.421669    1.243744
 C   -1.171231    0.274939   -0.182460
 S   -1.373373    1.911430   -0.967492
 C    0.156453    2.701608   -0.507704
 N    0.724785    2.353747    0.699293
 N    0.703720    3.614770   -1.210738
 C   -2.467724   -0.483666   -0.268677
 C   -2.476715   -1.862537   -0.460815
 N   -3.589501   -2.595395   -0.453725
 N   -4.847096   -0.612716   -0.071590
 C   -3.717876    0.096869   -0.087190
 F    1.265424   -1.760554    1.858775
 F    4.386394   -2.366769   -1.567061
 H    4.002619    0.136894   -2.119945
 H    2.442104    1.616443   -0.900295
 H    2.918004   -3.120754    0.456543
 H   -5.638720   -2.509317   -0.239007
 H    1.335025    0.191274    3.201826
 H    0.555365    1.794134    3.251355
 H    2.247047    1.635029    2.721360
 H   -1.284491    1.094669    1.810258
 H   -0.643218   -0.554405    1.731670
 H   -0.422435   -0.265260   -0.772758
 H    1.555423    2.907266    0.872283
 H    0.156751    3.810548   -2.046626
 H   -1.546930   -2.410127   -0.628795
 H   -3.824357    1.173518    0.051306
