35 
5kqg_ligand_xtb.xyz
 O   -2.304563   -3.204925   -0.062116
 S   -2.519099   -1.800775    0.628959
 O   -3.885890   -1.700000    1.003288
 O   -1.513366   -1.574340    1.620106
 C   -2.156824   -0.660998   -0.782333
 C   -0.662745   -0.872328   -0.867801
 O   -0.213986   -1.960786   -1.155118
 N    0.090859    0.212229   -0.542709
 C    1.451024    0.210273   -0.362796
 N    2.257964   -0.731297   -0.637834
 C    3.545715   -0.411104   -0.319079
 C    4.652909   -1.234587   -0.488949
 C    5.894711   -0.766388   -0.112299
 C    6.050017    0.507739    0.427467
 C    4.964259    1.344999    0.603711
 C    3.716502    0.880324    0.230325
 S    2.174546    1.683524    0.335011
 C   -2.679794    0.696053   -0.472123
 C   -3.432789    1.394703   -1.410256
 C   -3.922088    2.655558   -1.117099
 C   -3.668228    3.231046    0.116224
 C   -2.930388    2.537032    1.061172
 C   -2.437500    1.276025    0.772973
 H   -1.405601   -3.252521   -0.437008
 H   -2.650445   -1.111855   -1.641796
 H   -0.399473    1.057544   -0.269925
 H    4.515441   -2.218510   -0.906291
 H    6.761802   -1.397243   -0.235763
 H    7.032673    0.848843    0.715453
 H    5.080661    2.331913    1.022770
 H   -3.636518    0.947430   -2.371967
 H   -4.506916    3.186798   -1.852493
 H   -4.052173    4.213663    0.343796
 H   -2.741238    2.975263    2.029049
 H   -1.893375    0.718489    1.520340
