100 
5kqx_ligand_xtb.xyz
 C    4.221560   -0.692296    0.401197
 O    3.535453   -1.701994    0.520851
 N    6.244449    0.457779   -0.104649
 C    5.646253   -0.710492   -0.025264
 C    6.276182   -1.934447   -0.319062
 C    7.587879   -1.914977   -0.708980
 C    9.612846   -0.566009   -1.192949
 C   10.209478    0.661906   -1.261321
 C    9.487918    1.826642   -0.945745
 C    8.178028    1.753615   -0.565575
 C    8.263579   -0.681520   -0.803149
 C    7.533050    0.500357   -0.483915
 N    3.753442    0.545871    0.637787
 C    2.421762    0.795443    1.136533
 C    1.390646    0.663595   -0.001627
 O    0.855266    1.634820   -0.523746
 C    2.306031    2.161438    1.798136
 C    0.958014    2.279599    2.491133
 O    0.061557    1.469535    2.353912
 N    0.826495    3.376705    3.257849
 C   -1.101329   -0.469787   -1.369963
 O   -1.099638    0.736717   -2.087066
 C    0.295516   -1.126940   -1.355596
 N    1.153136   -0.611077   -0.303844
 C    0.246463   -2.659910   -1.222752
 C   -0.337004   -3.123453    0.083784
 C    0.461912   -3.260664    1.213186
 C   -1.692501   -3.418703    0.183419
 C   -0.089943   -3.647670    2.422448
 C   -2.243025   -3.808396    1.392501
 C   -1.444719   -3.913752    2.518593
 N   -2.718646    0.849501   -0.099169
 C   -1.695206   -0.217077    0.041174
 C   -4.068150    0.441496    0.337030
 C   -4.523273   -0.757888   -0.528213
 O   -4.112548   -0.852731   -1.666468
 C   -5.075994    1.563551    0.064729
 C   -4.651348    2.891122    0.693348
 C   -5.634963    4.019406    0.365634
 C   -5.570935    4.449107   -1.097797
 C   -4.147561    4.839001   -1.482567
 C   -3.189477    3.676247   -1.236216
 C   -3.234602    3.261063    0.237047
 C   -2.282581    2.108763    0.541450
 N   -5.401127   -1.566331    0.069885
 C   -6.195854   -2.613027   -0.601402
 C   -7.028862   -3.293979    0.481008
 C   -7.100273   -1.948391   -1.641126
 C   -5.268927   -3.624270   -1.273331
 H    5.709843   -2.847364   -0.227092
 H    8.114908   -2.828137   -0.945553
 H   10.162315   -1.464156   -1.434346
 H   11.243392    0.747379   -1.559179
 H    9.982323    2.784365   -1.007247
 H    7.609941    2.637504   -0.320566
 H    4.399496    1.304420    0.458077
 H    2.186219    0.012814    1.871497
 H    3.110736    2.303546    2.520086
 H    2.364858    2.942451    1.035751
 H   -0.025195    3.521118    3.775051
 H    1.577691    4.030511    3.388882
 H   -1.784353   -1.122384   -1.924687
 H   -0.352969    1.277966   -1.736731
 H    0.737571   -0.888755   -2.336023
 H    1.793627   -1.292889    0.111187
 H   -0.336461   -3.057280   -2.054305
 H    1.268418   -3.032155   -1.315133
 H    1.526450   -3.091664    1.149195
 H   -2.315771   -3.353149   -0.697012
 H    0.542554   -3.751417    3.290809
 H   -3.296894   -4.039305    1.457220
 H   -1.873449   -4.219577    3.460805
 H   -2.736844    1.023977   -1.129771
 H   -2.145268   -1.131219    0.425832
 H   -0.934196    0.116227    0.747901
 H   -4.020437    0.195494    1.402341
 H   -6.049058    1.266797    0.460195
 H   -5.183535    1.675431   -1.014752
 H   -4.637021    2.757560    1.782199
 H   -5.391480    4.879126    0.992962
 H   -6.649071    3.704529    0.617183
 H   -5.920235    3.644384   -1.746578
 H   -6.238215    5.298193   -1.247734
 H   -4.112981    5.127805   -2.533214
 H   -3.834855    5.700292   -0.888810
 H   -2.171681    3.974078   -1.493198
 H   -3.462805    2.849040   -1.893526
 H   -2.900842    4.119525    0.829287
 H   -1.279671    2.341458    0.177881
 H   -2.216861    1.928297    1.617177
 H   -5.680814   -1.358942    1.016386
 H   -7.707339   -2.586231    0.953560
 H   -6.387626   -3.731960    1.243104
 H   -7.623711   -4.089022    0.041899
 H   -6.497477   -1.457169   -2.400004
 H   -7.748007   -1.210654   -1.171931
 H   -7.721577   -2.695889   -2.124304
 H   -4.634463   -4.111844   -0.537926
 H   -5.861300   -4.384000   -1.774094
 H   -4.646391   -3.129260   -2.012418
