100 
5kqx_ligand_ani.xyz
 C    4.298474   -0.339545    0.692974
 O    3.623206   -1.304114    1.063496
 N    6.350860    0.582432   -0.169140
 C    5.739476   -0.489611    0.278445
 C    6.345508   -1.763160    0.387688
 C    7.650838   -1.895030    0.001365
 C    9.705679   -0.809885   -0.921045
 C   10.323446    0.319897   -1.389661
 C    9.619196    1.547603   -1.453579
 C    8.311899    1.621822   -1.048445
 C    8.352579   -0.764215   -0.494178
 C    7.649954    0.465325   -0.559903
 N    3.825499    0.918914    0.622845
 C    2.460748    1.237818    0.992786
 C    1.501578    0.841695   -0.141680
 O    1.039571    1.681639   -0.918052
 C    2.287573    2.708987    1.325098
 C    0.883345    2.950261    1.855506
 O    0.148261    2.016748    2.149972
 N    0.507951    4.244408    2.002137
 C   -1.085740   -0.537407   -1.243544
 O   -1.170836    0.585922   -2.111177
 C    0.363438   -1.084812   -1.203201
 N    1.206982   -0.469184   -0.186685
 C    0.443221   -2.616694   -1.062109
 C   -0.176675   -3.208522    0.187747
 C    0.558435   -3.362761    1.368058
 C   -1.511866   -3.622348    0.179884
 C   -0.037618   -3.886914    2.512533
 C   -2.113620   -4.135507    1.326238
 C   -1.375578   -4.268737    2.498426
 N   -2.832464    0.825330   -0.097545
 C   -1.718116   -0.176754    0.123772
 C   -4.195084    0.312810    0.297689
 C   -4.557456   -0.861566   -0.620147
 O   -4.314449   -0.813836   -1.818818
 C   -5.274186    1.393021    0.152388
 C   -4.906820    2.681152    0.892579
 C   -5.992179    3.762196    0.772360
 C   -6.072621    4.370448   -0.633340
 C   -4.713763    4.913697   -1.084387
 C   -3.637494    3.827947   -1.008288
 C   -3.554545    3.221052    0.401509
 C   -2.482075    2.144810    0.532529
 N   -5.197390   -1.902803   -0.024464
 C   -5.915735   -2.968809   -0.753893
 C   -6.557969   -3.864174    0.306073
 C   -7.000585   -2.366876   -1.658211
 C   -4.938752   -3.790142   -1.599570
 H    5.761213   -2.593246    0.771445
 H    8.160855   -2.854118    0.066388
 H   10.238239   -1.757296   -0.868641
 H   11.359498    0.283530   -1.716479
 H   10.123730    2.434741   -1.827718
 H    7.742380    2.545640   -1.084324
 H    4.430871    1.618439    0.211105
 H    2.209255    0.637992    1.870733
 H    3.017376    3.001393    2.089327
 H    2.455542    3.321099    0.432066
 H   -0.449263    4.434260    2.260730
 H    1.070856    5.007151    1.661637
 H   -1.717469   -1.302800   -1.708811
 H   -0.424045    1.173812   -1.870837
 H    0.769437   -0.822323   -2.190191
 H    1.779746   -1.084409    0.384993
 H   -0.032205   -3.060166   -1.946054
 H    1.503080   -2.898323   -1.125794
 H    1.610797   -3.078285    1.398009
 H   -2.093023   -3.525767   -0.738286
 H    0.549718   -3.994344    3.420949
 H   -3.157999   -4.439523    1.308285
 H   -1.836283   -4.673597    3.395741
 H   -2.834963    0.940154   -1.134834
 H   -2.122231   -1.064331    0.615061
 H   -1.004140    0.274021    0.814782
 H   -4.136559   -0.010399    1.344326
 H   -6.221600    0.998060    0.538139
 H   -5.433924    1.590383   -0.913022
 H   -4.793429    2.422491    1.956771
 H   -5.768720    4.563661    1.490974
 H   -6.963719    3.342534    1.063490
 H   -6.415427    3.606921   -1.345996
 H   -6.827399    5.165930   -0.653248
 H   -4.777796    5.316334   -2.102237
 H   -4.425734    5.750699   -0.432394
 H   -2.657546    4.237850   -1.287399
 H   -3.863321    3.044083   -1.745388
 H   -3.256521    4.037311    1.076797
 H   -1.548018    2.493624    0.082629
 H   -2.284611    1.959828    1.594037
 H   -5.349130   -1.854176    0.973157
 H   -7.270734   -3.297871    0.916941
 H   -5.793744   -4.290002    0.966937
 H   -7.099282   -4.695155   -0.159023
 H   -6.555135   -1.715416   -2.414155
 H   -7.715362   -1.781988   -1.068854
 H   -7.548431   -3.169231   -2.165969
 H   -4.186699   -4.268096   -0.963484
 H   -5.480644   -4.583592   -2.127735
 H   -4.435054   -3.154484   -2.330787
