73 
5kr1_ligand_xtb.xyz
 N    6.386323   -3.239144   -0.639850
 C    5.709511   -2.060656   -0.810095
 C    4.774946   -1.921541   -1.842908
 C    4.041149   -0.760738   -1.967879
 C    4.236169    0.274182   -1.070402
 C    5.156191    0.157321   -0.043796
 C    5.890484   -1.001668    0.088279
 S    3.279958    1.773871   -1.199927
 O    4.135552    2.914659   -1.071192
 O    2.469425    1.680326   -2.390138
 N    2.249012    1.755930    0.102600
 C    2.567246    2.545944    1.267396
 C    1.395269    3.446209    1.682756
 C    1.084881    4.438899    0.567018
 C    1.735485    4.172864    2.980856
 C    1.480660    0.544600    0.272912
 C    0.120784    0.603454   -0.447998
 O    0.226509    0.306146   -1.815527
 C   -0.897715   -0.384272    0.157810
 N   -2.182584   -0.125726   -0.452799
 C   -3.287467    0.152838    0.259182
 O   -3.368499    0.145469    1.462708
 O   -4.326615    0.436151   -0.574967
 C   -5.560410    0.690805    0.065269
 C   -6.548561    1.320891   -0.921896
 O   -7.825535    1.009416   -0.404741
 C   -7.785167   -0.275789    0.140790
 O   -8.186151   -1.260756   -0.803504
 C   -7.110631   -2.052757   -1.068634
 C   -6.026238   -1.775746   -0.358979
 C   -6.312483   -0.586572    0.512343
 C   -0.513540   -1.857689   -0.071910
 C    1.810288   -2.765430    0.257777
 C    2.850278   -3.181077    1.071052
 C    2.701975   -3.166944    2.446882
 C    1.504170   -2.750092    3.003406
 C    0.465665   -2.337607    2.188305
 C    0.610459   -2.328161    0.805350
 H    7.202450   -3.227533   -0.051779
 H    6.417479   -3.875701   -1.418354
 H    4.632814   -2.733696   -2.540392
 H    3.319580   -0.633597   -2.759349
 H    5.295677    0.985603    0.632581
 H    6.612024   -1.102458    0.885280
 H    2.858688    1.893556    2.102389
 H    3.417215    3.170365    0.988099
 H    0.517729    2.812109    1.851336
 H    0.923029    3.912157   -0.370177
 H    1.921311    5.119947    0.428418
 H    0.196444    5.019179    0.805051
 H    2.619113    4.792388    2.845752
 H    1.930062    3.463917    3.782707
 H    0.909624    4.812270    3.281930
 H    2.048887   -0.302016   -0.125352
 H    1.321602    0.374769    1.339770
 H   -0.283840    1.621575   -0.315709
 H    0.955646    0.842285   -2.187703
 H   -1.016556   -0.184434    1.226935
 H   -2.199609   -0.038053   -1.456873
 H   -5.391876    1.341518    0.931689
 H   -6.397252    0.877999   -1.914757
 H   -6.474211    2.405189   -0.985747
 H   -8.506059   -0.297043    0.964599
 H   -7.286210   -2.820615   -1.799645
 H   -5.077490   -2.269443   -0.395613
 H   -6.149659   -0.788323    1.570753
 H   -0.251389   -1.977650   -1.123234
 H   -1.402825   -2.458020    0.137384
 H    1.932500   -2.778645   -0.815941
 H    3.777552   -3.514597    0.629775
 H    3.513421   -3.487773    3.083265
 H    1.377817   -2.750145    4.076249
 H   -0.470148   -2.023362    2.627401
