40 
5kr8_ligand_dft.xyz
 N    0.108871    3.636989   -1.716268
 C    3.472894   -0.170585   -1.256034
 C    2.515631    0.671855   -0.698461
 C    1.850405    0.367675    0.491982
 C    1.199997    1.748870    2.502014
 C    3.772302   -1.355119   -0.605587
 C    3.142420   -1.715404    0.575266
 C    2.198773   -0.845009    1.092387
 C   -0.034971    2.667525   -0.898971
 C   -1.318362   -2.992927   -1.086125
 C   -2.390260   -2.109217   -0.535681
 C   -2.284403   -0.734661   -0.159789
 C   -3.539519   -0.427064    0.276031
 O   -4.323925   -1.508085    0.173178
 N   -3.598240   -2.569920   -0.337447
 C   -4.167533    0.804039    0.827218
 C   -1.041571    0.096256   -0.211063
 C   -0.578542    0.579361    1.160046
 C    0.779049    1.297331    1.095777
 N    0.615490    2.517626    0.311986
 S   -1.297642    1.502482   -1.369230
 F    1.592068   -1.224628    2.236231
 F    4.687306   -2.181144   -1.124118
 H    0.789499    4.319513   -1.376929
 H    3.974089    0.080311   -2.183478
 H    2.270462    1.590299   -1.220125
 H    0.443695    2.423649    2.913732
 H    1.315506    0.893037    3.168175
 H    2.158867    2.278438    2.463013
 H    3.374973   -2.644653    1.080626
 H   -0.925761   -2.590345   -2.025808
 H   -1.719079   -3.991283   -1.272485
 H   -0.482033   -3.075969   -0.383295
 H   -5.166853    0.939783    0.404704
 H   -3.561533    1.678518    0.580245
 H   -4.267287    0.734948    1.915965
 H   -0.249186   -0.526466   -0.636889
 H   -0.494690   -0.286039    1.821600
 H   -1.315110    1.264706    1.593601
 H    1.353034    3.198030    0.448636
