40 
5kr8_ligand_xtb.xyz
 N   -0.749898    3.570105   -0.970520
 C    3.630148    0.322774   -1.190661
 C    2.608038    0.963903   -0.515596
 C    1.889225    0.337623    0.496197
 C    1.244242    1.342326    2.677180
 C    3.945281   -0.977940   -0.845943
 C    3.266658   -1.642317    0.158231
 C    2.253490   -0.967858    0.811959
 C   -0.309732    2.491317   -0.486581
 C   -1.876659   -3.328361   -0.232744
 C   -2.730584   -2.116233   -0.199375
 C   -2.307918   -0.754565   -0.161683
 C   -3.484968   -0.048187   -0.143761
 O   -4.509241   -0.914440   -0.167211
 N   -4.033904   -2.182902   -0.197562
 C   -3.797314    1.401132   -0.113548
 C   -0.904502   -0.265159   -0.123568
 C   -0.531876    0.249726    1.259295
 C    0.776414    1.063260    1.245566
 N    0.474392    2.335295    0.616787
 S   -0.649653    1.030740   -1.431978
 F    1.613000   -1.634828    1.798275
 F    4.935673   -1.615432   -1.491891
 H   -0.483640    4.415227   -0.474028
 H    4.175818    0.819690   -1.975762
 H    2.357905    1.976597   -0.788545
 H    0.465073    1.860779    3.232470
 H    1.470437    0.412666    3.190652
 H    2.142228    1.957377    2.663190
 H    3.515925   -2.655012    0.429740
 H   -1.270831   -3.333505   -1.137892
 H   -2.506992   -4.212075   -0.219390
 H   -1.209618   -3.346418    0.627888
 H   -3.149564    1.944763   -0.798369
 H   -3.653315    1.803931    0.889342
 H   -4.835694    1.547694   -0.397717
 H   -0.234238   -1.076247   -0.418352
 H   -0.454011   -0.599081    1.938352
 H   -1.325484    0.903637    1.630105
 H    0.672529    3.169870    1.149471
