35 
5ktu_ligand_ani.xyz
 C   50.479469  121.330917    6.871975
 C   51.495376  120.497079    6.076352
 N   51.159947  120.469103    4.648229
 C   50.220718  119.536072    4.258507
 O   49.810089  118.686489    5.033507
 C   49.742731  119.588465    2.820785
 C   51.313369  121.766610    3.992242
 C   50.575129  122.806563    4.787526
 C   50.220381  122.585471    6.092360
 N   49.585530  123.703333    6.507372
 N   49.502535  124.662115    5.546870
 C   50.103439  124.112334    4.498563
 N   50.257889  124.721600    3.266362
 C   49.876724  125.999879    2.832408
 C   50.472577  126.475631    1.656968
 C   50.141452  127.723706    1.147638
 C   49.201154  128.516190    1.798380
 C   48.603578  128.040099    2.960396
 C   48.927139  126.792776    3.487402
 H   49.548824  120.764105    6.996693
 H   50.864860  121.551431    7.874360
 H   51.538413  119.467334    6.433811
 H   52.492785  120.943387    6.167443
 H   49.164883  118.682198    2.636793
 H   49.096558  120.456039    2.649923
 H   50.577974  119.635581    2.115046
 H   52.391098  121.990914    3.941564
 H   50.954737  121.703190    2.960596
 H   49.211563  123.889998    7.423943
 H   50.839619  124.211179    2.618843
 H   51.208307  125.861274    1.140767
 H   50.619639  128.075197    0.236626
 H   48.935224  129.493387    1.405351
 H   47.867082  128.652198    3.476229
 H   48.453206  126.437159    4.396169
