58 
5ktw_ligand_xtb.xyz
 C    3.295423   -1.273894   -0.070177
 C    2.899670   -3.515531    0.683998
 C    6.443763    0.798045   -0.332059
 C    1.549250   -3.247968    0.787399
 C    6.826176    1.607248    0.905519
 C    7.660077    0.095149   -0.932824
 N    5.423426   -0.173564    0.001321
 C    4.188044   -0.177693   -0.554419
 O    3.832539    0.648647   -1.372451
 C    3.781565   -2.536847    0.259527
 C    1.049680   -1.987936    0.446983
 C    1.937055   -1.005795    0.012067
 N   -0.306959   -1.769499    0.554708
 C   -1.025222   -0.638794    0.249079
 C   -2.435603   -0.540810    0.303383
 C   -2.711318    0.759035   -0.067898
 N   -1.533639    1.357957   -0.330449
 N   -0.503955    0.518773   -0.129790
 C   -1.262883    2.711958   -0.732450
 C   -1.235052    3.659116    0.450924
 C   -1.120863    5.133043    0.207859
 C   -2.397061    4.559612    0.743634
 C   -4.081406    1.325953   -0.157323
 C   -5.004254    0.377454    0.620220
 N   -4.782579   -1.001703    0.229121
 C   -3.499998   -1.539831    0.634821
 C   -5.719812   -1.629996   -0.521893
 O   -6.744356   -1.067392   -0.859463
 C   -5.445031   -3.070843   -0.901331
 H    3.268221   -4.499683    0.934929
 H    5.989045    1.455685   -1.080188
 H    0.869819   -4.019851    1.123306
 H    5.947536    2.091044    1.324777
 H    7.263198    0.958975    1.663490
 H    7.552714    2.371710    0.644249
 H    8.111368   -0.574675   -0.202542
 H    7.366497   -0.484838   -1.804234
 H    8.403897    0.826372   -1.237020
 H    5.647667   -0.848385    0.714742
 H    4.830281   -2.773602    0.154713
 H    1.564267   -0.033912   -0.264669
 H   -0.860727   -2.559150    0.850688
 H   -2.013600    3.030743   -1.461068
 H   -0.279336    2.693483   -1.211072
 H   -0.692225    3.253742    1.295807
 H   -1.110639    5.475172   -0.815572
 H   -0.497602    5.717279    0.866290
 H   -2.657528    4.750578    1.773549
 H   -3.248234    4.533438    0.079377
 H   -4.404116    1.379236   -1.201540
 H   -4.130373    2.327194    0.271427
 H   -6.051733    0.608840    0.423441
 H   -4.802908    0.469816    1.692798
 H   -3.518222   -1.737788    1.720067
 H   -3.305100   -2.483523    0.123765
 H   -6.318768   -3.447053   -1.426533
 H   -4.584854   -3.137840   -1.564403
 H   -5.271270   -3.680842   -0.017879
