58 
5ktw_ligand_dft.xyz
 C    3.251592   -1.361842   -0.073806
 C    2.807466   -3.545468    0.822527
 C    6.435226    0.666572   -0.523837
 C    1.459032   -3.236729    0.906237
 C    6.244931    1.938612    0.305357
 C    7.840697    0.089235   -0.384088
 N    5.459864   -0.355685   -0.165399
 C    4.168910   -0.295785   -0.608085
 O    3.784817    0.563409   -1.389029
 C    3.717438   -2.612115    0.335030
 C    0.983238   -1.983986    0.485807
 C    1.894972   -1.048079   -0.014173
 N   -0.383393   -1.745462    0.590177
 C   -1.115543   -0.614474    0.265767
 C   -2.523018   -0.508954    0.375150
 C   -2.803323    0.772313   -0.047198
 N   -1.631931    1.339488   -0.398416
 N   -0.580261    0.505872   -0.199599
 C   -1.362579    2.699814   -0.820797
 C   -0.768388    3.537306    0.285820
 C   -0.959996    5.028008    0.269226
 C   -1.666452    4.187551    1.301152
 C   -4.175695    1.363386   -0.111822
 C   -5.105540    0.453925    0.709854
 N   -4.891749   -0.949745    0.376083
 C   -3.595619   -1.468786    0.804373
 C   -5.627478   -1.470303   -0.664205
 O   -6.533251   -0.834663   -1.181435
 C   -5.294333   -2.877030   -1.126959
 H    3.149948   -4.527794    1.134134
 H    6.242286    0.906003   -1.573316
 H    0.760278   -3.976018    1.292617
 H    5.231607    2.324795    0.168427
 H    6.404564    1.734106    1.371058
 H    6.956297    2.712115   -0.004018
 H    8.053593   -0.177996    0.659297
 H    7.959659   -0.806668   -1.001011
 H    8.588015    0.826133   -0.693762
 H    5.651608   -0.911102    0.655628
 H    4.765992   -2.876369    0.237361
 H    1.558820   -0.080021   -0.359881
 H   -0.924613   -2.500823    0.978187
 H   -2.306897    3.131460   -1.168902
 H   -0.680399    2.648214   -1.674109
 H    0.187068    3.165282    0.644866
 H   -1.558727    5.456036   -0.530692
 H   -0.133153    5.654343    0.588098
 H   -1.325557    4.235636    2.330269
 H   -2.740282    4.055434    1.194583
 H   -4.535801    1.407798   -1.146725
 H   -4.200320    2.381762    0.291553
 H   -6.150091    0.693293    0.517840
 H   -4.899482    0.580414    1.778876
 H   -3.612057   -1.593495    1.897324
 H   -3.437287   -2.461790    0.377298
 H   -6.075402   -3.183260   -1.822613
 H   -4.332068   -2.899542   -1.650250
 H   -5.251062   -3.588217   -0.296326
