39 
5kx7_ligand_xtb.xyz
 N   -1.219559   -0.789324   -0.007689
 C   -0.880475   -2.102621   -0.007571
 O   -1.673750   -3.025720   -0.012827
 C    0.604871   -2.275952    0.001076
 N    1.311054   -1.153716   -0.004219
 C    2.638473   -1.211772    0.003939
 C    3.314204   -2.439107    0.019472
 C    2.575502   -3.606890    0.025249
 C    1.189167   -3.536644    0.015268
 C    3.313050    0.068283   -0.003856
 C    4.688938    0.377263   -0.008906
 N    4.877920    1.679843   -0.014302
 N    3.664119    2.232062   -0.011851
 C    2.691908    1.312271   -0.007020
 C   -2.491058   -0.275028   -0.007804
 C   -3.716753   -0.914764   -0.020713
 N   -4.656448    0.057585   -0.012296
 N   -4.133774    1.267806    0.004514
 C   -2.808194    1.105419    0.007787
 C   -6.078384   -0.126149   -0.022338
 C   -1.857774    2.219157    0.026020
 N   -2.442037    3.435951    0.040531
 O   -0.644786    2.062473    0.027922
 C    3.510157    3.657189   -0.027898
 H   -0.450709   -0.117708   -0.001833
 H    4.392427   -2.464476    0.027313
 H    3.072585   -4.566664    0.037813
 H    0.564634   -4.415292    0.018607
 H    5.531686   -0.285023   -0.008691
 H    1.650969    1.565066   -0.003464
 H   -3.951769   -1.957618   -0.034045
 H   -6.390483   -0.646399   -0.929558
 H   -6.394029   -0.708555    0.844736
 H   -6.544269    0.856455    0.010402
 H   -1.878195    4.268074    0.056036
 H   -3.444726    3.497462    0.039008
 H    4.113237    4.101028    0.764918
 H    3.845325    4.063584   -0.984472
 H    2.460879    3.900653    0.123412
