69 
5kxc_ligand_xtb.xyz
 C    4.395014    0.154261   -0.553842
 C    5.529764    0.478607   -1.307192
 C    6.749195   -0.077986   -1.003895
 C    6.847388   -0.969622    0.061934
 C    5.726530   -1.301135    0.813142
 C    4.502001   -0.743635    0.507425
 C    2.092968    0.622821   -0.173014
 C    1.089025    1.661018   -0.701910
 C   -0.714543   -0.021717   -0.222796
 C    0.399631   -0.892416    0.379062
 C   -3.225921   -4.792756   -0.354305
 C   -4.104568   -3.638054    0.054465
 O   -5.212098   -3.805225    0.540440
 N   -3.582902   -2.420456   -0.198542
 C   -4.122359   -1.145781    0.253341
 C   -5.501340   -0.812904   -0.353124
 O   -6.541131   -1.539110    0.235125
 C   -5.859799    0.671330   -0.100557
 O   -6.203335    0.851940    1.243868
 C   -4.702992    1.606936   -0.460345
 C   -4.979947    3.038392   -0.010603
 O   -3.980842    3.865486   -0.560412
 O   -3.505633    1.212060    0.180239
 C   -3.100279   -0.078552   -0.170699
 O   -1.901300   -0.362821    0.466985
 O    1.600842   -0.689728   -0.333817
 C    0.047233   -2.384633    0.316466
 O   -0.460837   -2.773018   -0.935497
 C   -0.321199    1.464161   -0.109306
 O   -1.155620    2.310156   -0.851686
 N    1.563035    3.005718   -0.458104
 C    1.872907    3.485488    0.773604
 O    1.940259    2.787040    1.763605
 C    2.164032    4.968945    0.778402
 O    3.246639    0.763164   -0.943540
 N    8.117395   -1.555545    0.382550
 O    8.159525   -2.346562    1.302512
 O    9.076121   -1.227092   -0.285818
 H    5.420293    1.172487   -2.124504
 H    7.634294    0.162069   -1.572573
 H    5.830372   -1.998234    1.630606
 H    3.634055   -1.018636    1.082581
 H    2.296007    0.817216    0.893635
 H    1.018423    1.528192   -1.786184
 H   -0.826439   -0.263626   -1.291938
 H    0.534748   -0.606057    1.432780
 H   -3.165434   -5.495572    0.473341
 H   -2.231115   -4.469000   -0.642534
 H   -3.697733   -5.310350   -1.187285
 H   -2.625105   -2.387582   -0.522344
 H   -4.207570   -1.130246    1.348231
 H   -5.455537   -0.999291   -1.440445
 H   -6.226311   -2.458931    0.409003
 H   -6.722746    0.916761   -0.742737
 H   -6.701762    0.055501    1.493074
 H   -4.549679    1.589915   -1.551748
 H   -5.976455    3.335545   -0.361365
 H   -4.962559    3.052387    1.083187
 H   -4.049930    4.741365   -0.167460
 H   -2.980825   -0.135560   -1.276774
 H    0.944286   -2.962820    0.568004
 H   -0.736147   -2.590478    1.046826
 H    0.221156   -2.600875   -1.596156
 H   -0.314188    1.740628    0.954807
 H   -2.048431    2.317890   -0.462807
 H    1.369837    3.672633   -1.187359
 H    1.258949    5.521148    0.534755
 H    2.928876    5.205108    0.042713
 H    2.506795    5.263496    1.765788
