55 
5kya_ligand_ani.xyz
 N    2.219391    1.104263    0.231827
 C    1.191422    1.965716    0.516507
 N   -1.783834   -0.189057    0.557259
 C   -4.546744   -2.021539   -0.591335
 C   -3.049209   -0.511401    0.172324
 C   -5.200959    0.172799   -0.127110
 C   -1.418799    1.217054    0.762036
 C    0.058760    1.199984    0.530211
 C   -5.578604   -1.089517   -0.583412
 C   -6.952380   -1.465268   -1.074586
 N   -3.295823   -1.770696   -0.224101
 N   -3.958044    0.471481    0.230217
 C    0.488164   -0.095610    0.245715
 C    3.593448    1.385281    0.077563
 C    0.693441   -3.098465    1.032779
 O    8.206058   -0.182832   -1.128891
 C    4.440377    0.333250   -0.262035
 C   -0.182168   -1.507018    2.781399
 C   -0.447261   -2.155091    1.422217
 C   -0.640342   -1.087885    0.313797
 C    5.795138    0.591964   -0.422349
 C    7.033319   -1.645756    0.709850
 C   -6.164773    1.338757   -0.002547
 C    4.097188    2.675347    0.245299
 C    5.455664    2.909576    0.068512
 C    6.317601    1.871681   -0.268196
 F   -6.327830    1.978622   -1.168497
 F   -5.706549    2.223162    0.886515
 F   -7.386327    0.938476    0.408795
 O   -7.277886   -0.657244   -2.187824
 N    1.795706   -0.177331    0.070265
 S    6.898201   -0.755275   -0.827682
 O    6.224727   -1.637369   -1.775396
 H    1.368432    3.020250    0.677550
 H   -4.750451   -3.036769   -0.929166
 H   -1.696949    1.544833    1.772532
 H   -1.967724    1.856531    0.062428
 H   -6.928024   -2.530326   -1.351238
 H   -7.681740   -1.353809   -0.262945
 H    0.472967   -3.629821    0.099011
 H    1.624108   -2.534219    0.896222
 H    0.850871   -3.853496    1.811546
 H    4.021232   -0.656749   -0.403730
 H   -0.045246   -2.275879    3.549629
 H   -1.014726   -0.863089    3.086658
 H    0.727666   -0.893451    2.744324
 H   -1.379781   -2.730888    1.470608
 H   -0.783019   -1.610482   -0.641756
 H    6.036672   -1.978609    1.010825
 H    7.674325   -2.508991    0.518699
 H    7.476602   -0.999231    1.469434
 H    3.442277    3.499828    0.510711
 H    5.843232    3.916199    0.193627
 H    7.380969    2.033527   -0.417639
 H   -8.221197   -0.747495   -2.366947
