52 
5kyj_ligand_xtb.xyz
 C   -4.918741   -2.601146   -0.037408
 C   -0.552609   -2.370640   -0.053597
 C    0.686555   -1.800530   -0.011096
 C    4.007038   -0.461722   -0.180021
 C    4.869550    3.341476   -0.727237
 F    4.799965   -2.747817   -0.018872
 C    5.041116   -1.421660   -0.211767
 C    6.328992   -0.993423   -0.425005
 N    6.633146    0.284058   -0.606735
 C    5.613545    1.132009   -0.565140
 O    5.932576    2.408837   -0.752348
 N    4.341656    0.822775   -0.359787
 N    2.707819   -0.730973    0.026718
 C    1.719938    0.353009    0.076757
 C    1.840496    1.201350    1.359958
 C    1.602666    0.355355    2.607309
 C    0.851338    2.359247    1.285753
 C    2.142030   -2.079677    0.029119
 C    0.450883   -0.409121   -0.001625
 N   -1.447342   -1.332798   -0.064523
 N   -0.828985   -0.136008   -0.031123
 C   -2.837933   -1.387074   -0.105780
 C   -3.535386   -2.589480    0.006467
 C   -5.626506   -1.418744   -0.180155
 C   -4.924968   -0.233314   -0.284599
 C   -3.549366   -0.196154   -0.253687
 S   -5.827925    1.314859   -0.426480
 O   -5.069866    2.230296   -1.232202
 O   -7.182221    1.026502   -0.810874
 C   -5.835394    1.925731    1.285828
 H   -5.444516   -3.540072    0.042609
 H   -0.858561   -3.394411   -0.086382
 H    5.320401    4.308671   -0.938634
 H    4.120877    3.097178   -1.483908
 H    4.386557    3.355403    0.252395
 H    7.150211   -1.695510   -0.449684
 H    1.868495    1.013472   -0.785848
 H    2.860918    1.592943    1.386611
 H    0.586677   -0.034128    2.618091
 H    1.746944    0.959102    3.500118
 H    2.298374   -0.479604    2.647072
 H   -0.159034    1.977554    1.159946
 H    1.081649    3.006956    0.443414
 H    0.894316    2.950459    2.197105
 H    2.437717   -2.633481    0.928577
 H    2.480804   -2.645769   -0.845742
 H   -3.005931   -3.520738    0.128294
 H   -6.703055   -1.395730   -0.227596
 H   -3.023876    0.738228   -0.362796
 H   -6.366235    2.869425    1.299612
 H   -6.344525    1.193711    1.898808
 H   -4.808524    2.061526    1.598564
