53 
5kzi_ligand_xtb.xyz
 F   -1.915080   -1.471680    1.150216
 C   -3.061565   -1.304281    0.425678
 C   -3.875409   -2.402632    0.247154
 C   -5.045381   -2.256100   -0.479992
 C   -5.377659   -1.025680   -1.016882
 C   -4.540238    0.055199   -0.809703
 F   -4.868206    1.230364   -1.360763
 C   -3.355119   -0.039925   -0.075765
 C   -2.483246    1.127153    0.145467
 C   -3.053622    2.386832    0.496624
 C   -2.238732    3.462783    0.704613
 N   -1.198044    0.929336    0.019348
 N   -0.417486    1.999662    0.206749
 C   -0.854466    3.292116    0.554640
 C    0.306642    4.033803    0.649176
 N    1.379962    3.266957    0.372757
 C    0.931140    2.060378    0.101814
 N    1.621971    0.902211   -0.182260
 C    3.002608    0.814391   -0.396367
 C    3.871476    1.900589   -0.488301
 N    5.170366    1.752864   -0.650430
 C    5.685274    0.540922   -0.719487
 C    4.923670   -0.616043   -0.601209
 C    3.557297   -0.475562   -0.434677
 N    2.645604   -1.550315   -0.212120
 C    2.959164   -2.528024    0.809998
 C    2.022166   -2.183275   -1.367519
 C    0.644688   -2.708571   -0.952432
 C    0.743567   -3.572754    0.309774
 C    1.579160   -2.887422    1.390092
 N    0.968240   -1.565948    1.712171
 H   -3.598108   -3.351640    0.676741
 H   -5.694879   -3.102940   -0.629007
 H   -6.276551   -0.887061   -1.595379
 H   -4.120426    2.470384    0.608979
 H   -2.628899    4.429298    0.978968
 H    0.423095    5.068756    0.893769
 H    1.054270    0.261625   -0.725101
 H    3.495574    2.909573   -0.409697
 H    6.754558    0.489990   -0.864048
 H    5.383230   -1.591601   -0.626531
 H    3.601976   -2.076835    1.568712
 H    3.454807   -3.426530    0.424180
 H    1.926589   -1.454239   -2.173765
 H    2.640650   -3.011128   -1.740881
 H   -0.036540   -1.871789   -0.783870
 H    0.227448   -3.303557   -1.763727
 H    1.219379   -4.523018    0.066538
 H   -0.254611   -3.795192    0.688261
 H    1.649929   -3.508993    2.283593
 H    1.255777   -1.204024    2.623046
 H    1.385711   -0.964572    0.924426
 H   -0.056184   -1.571417    1.650032
