38 
5l13_ligand_xtb.xyz
 C   -0.016915   -1.171274   -0.073289
 C   -1.001541    1.038667   -0.170577
 C   -4.386386   -0.146667    0.178651
 C    2.328165   -1.546357   -0.222018
 C    1.476811    0.751723   -0.345135
 C    3.968059    0.300685   -0.509632
 C    4.569204    0.692869    0.846037
 C    6.018116    1.138561    0.701307
 O    3.216903   -2.365142   -0.213943
 O    1.052755   -2.000568   -0.084406
 C    2.528701   -0.104713   -0.372370
 C    1.637414    2.236503   -0.466528
 C    0.133955    0.228809   -0.196386
 C   -2.249275    0.456458   -0.029795
 C   -3.595310    0.950731    0.035275
 C   -4.043528    2.369722   -0.034248
 C   -5.862905   -0.258917    0.298652
 O   -3.656367   -1.303971    0.211092
 C   -2.362420   -0.949112    0.086242
 C   -1.259746   -1.776735    0.068218
 H   -0.915477    2.108673   -0.260037
 H    4.520876   -0.557255   -0.896018
 H    4.075971    1.124532   -1.216810
 H    4.516148   -0.169654    1.512390
 H    3.979751    1.497366    1.292337
 H    6.619372    0.340047    0.273637
 H    6.089958    2.008099    0.050454
 H    6.434543    1.401083    1.670971
 H    2.678069    2.519711   -0.569932
 H    1.089909    2.601034   -1.334889
 H    1.235953    2.725981    0.419708
 H   -4.736964    2.512769   -0.861969
 H   -4.556025    2.654382    0.884117
 H   -3.191778    3.028381   -0.175231
 H   -6.221474    0.328499    1.142750
 H   -6.348849    0.114871   -0.601991
 H   -6.136419   -1.299839    0.444248
 H   -1.334291   -2.846954    0.157886
