38 
5l13_ligand_ani.xyz
 C   -0.021989   -1.104157   -0.054771
 C   -1.066505    1.080736   -0.107476
 C   -4.425073   -0.214122    0.132969
 C    2.350139   -1.416805   -0.223610
 C    1.435009    0.868800   -0.241356
 C    3.939658    0.479549   -0.516089
 C    4.782824    0.373857    0.760829
 C    6.222511    0.830934    0.547524
 O    3.259708   -2.207441   -0.265027
 O    1.079003   -1.908398   -0.075097
 C    2.506942    0.048553   -0.331749
 C    1.547989    2.374015   -0.253614
 C    0.097157    0.302002   -0.132568
 C   -2.301064    0.459072   -0.007292
 C   -3.678510    0.911121    0.041833
 C   -4.150491    2.330558    0.003403
 C   -5.893049   -0.451556    0.212962
 O   -3.650046   -1.351861    0.154062
 C   -2.358635   -0.942033    0.067775
 C   -1.242315   -1.754501    0.050073
 H   -0.993523    2.163014   -0.173973
 H    4.382271   -0.180022   -1.269446
 H    3.993140    1.499490   -0.915774
 H    4.765347   -0.666755    1.099183
 H    4.311468    0.969752    1.552812
 H    6.709387    0.236579   -0.234768
 H    6.266861    1.883664    0.242429
 H    6.812611    0.723087    1.463667
 H    2.582494    2.718651   -0.205468
 H    1.095589    2.791900   -1.159159
 H    1.025270    2.803927    0.606259
 H   -3.746712    2.855326   -0.869218
 H   -5.242369    2.389576   -0.047336
 H   -3.826091    2.883857    0.892278
 H   -6.442888    0.491342    0.155505
 H   -6.223507   -1.096601   -0.606607
 H   -6.152842   -0.945744    1.154255
 H   -1.293412   -2.835590    0.110810
