34 
5l2o_ligand_xtb.xyz
 O   -3.849425   -2.386362    0.193071
 C   -3.166269   -1.392768    0.113771
 O   -1.811430   -1.558287   -0.022460
 C   -0.969142   -0.502912   -0.117948
 C   -3.656746   -0.034158    0.151415
 C   -2.842335    1.044320    0.062430
 C   -3.384635    2.436613    0.108199
 C   -1.430958    0.823941   -0.079531
 C   -0.462931    1.831556   -0.182683
 C    0.869347    1.542282   -0.311641
 C    1.339846    0.209872   -0.353186
 C    0.378269   -0.800326   -0.246258
 N    2.666596   -0.071843   -0.519641
 C    3.675581    0.953316   -0.355917
 C    3.836525    1.419995    1.092278
 C    3.128728   -1.434835   -0.662996
 C    3.360229   -2.151669    0.668548
 H   -4.725287    0.067192    0.257511
 H   -3.139936    2.967799   -0.810613
 H   -4.464629    2.419792    0.225633
 H   -2.949527    2.984875    0.942601
 H   -0.772541    2.864827   -0.161464
 H    1.558061    2.365673   -0.395761
 H    0.635550   -1.844981   -0.249493
 H    3.438595    1.808927   -0.996629
 H    4.625205    0.543824   -0.706427
 H    2.894479    1.796614    1.481616
 H    4.161642    0.599558    1.725881
 H    4.578750    2.212548    1.143848
 H    4.065462   -1.413669   -1.227806
 H    2.404293   -1.989262   -1.263697
 H    4.179251   -1.691768    1.215473
 H    2.466534   -2.109752    1.285340
 H    3.611706   -3.193461    0.487710
