82 
5l2y_ligand_ani.xyz
 C    0.294840   -1.487415    1.748071
 C   -3.915870   -2.991250    0.846505
 C   -4.546488   -2.199158   -0.144676
 C   -3.750635   -1.585532   -1.129558
 C   -2.350386   -1.792933   -1.134776
 C   -2.557508   -3.188019    0.823973
 C   -4.423639   -0.760655   -2.055473
 C   -5.774229   -0.569831   -1.993207
 C   -5.972285   -1.975929   -0.196361
 C    6.382282   -0.949077   -2.643357
 C    0.263701    1.748718    0.729572
 C    6.045186   -1.222436   -1.175602
 C    6.470569   -0.030280   -0.290651
 C    4.581184   -1.575764   -0.955899
 C    3.584897   -1.102424   -1.812888
 C    2.244771   -1.141503   -1.449767
 C    1.861290   -1.685060   -0.222408
 C    2.842316   -2.280348    0.565878
 C    4.191840   -2.262708    0.208580
 C    5.183556   -2.932330    1.134416
 C    0.395374   -1.617037    0.214955
 N   -0.354716   -2.792973   -0.216645
 C   -1.758808   -2.592848   -0.181103
 N   -6.547822   -1.173319   -1.061950
 O    0.382481   -2.488130    2.447500
 N    0.178544   -0.235601    2.310629
 C   -0.553238    0.843634    1.655561
 C   -0.375919    2.777241    0.006594
 C    0.420030    3.662200   -0.725240
 C    1.786448    3.487507   -0.839775
 C    2.401653    2.417212   -0.191069
 C    1.640285    1.567050    0.606284
 N    3.776980    2.229809   -0.391194
 O    5.694488    1.146731   -0.560083
 C    4.579018    1.293562    0.203291
 O    4.368049    0.703755    1.236271
 C    0.226751   -0.198290    3.770946
 N   -6.779723   -2.590933    0.745434
 C   -1.885853    2.958328    0.007372
 F   -3.687287   -0.142973   -3.001636
 C   -2.395561    3.545508    1.312331
 C   -2.773077    1.760535   -0.428864
 C   -3.645471    2.706824   -1.269508
 C   -2.533557    3.769118   -1.166757
 O   -1.855052    4.750254    1.589164
 O   -3.222452    3.041388    2.036907
 H   -4.506716   -3.424426    1.648337
 H   -1.742391   -1.335646   -1.905962
 H   -2.079694   -3.786072    1.598076
 H   -6.271758    0.083262   -2.707971
 H    6.043109   -1.767790   -3.286558
 H    5.923281   -0.017643   -2.990885
 H    7.465902   -0.846849   -2.769924
 H    6.651336   -2.077540   -0.845517
 H    7.502144    0.249334   -0.518598
 H    6.381782   -0.266834    0.771690
 H    3.858478   -0.656917   -2.766860
 H    1.497502   -0.734971   -2.128860
 H    2.562695   -2.769864    1.496736
 H    5.783547   -2.198777    1.687876
 H    4.649355   -3.527518    1.881466
 H    5.872336   -3.601429    0.605673
 H   -0.037782   -0.739223   -0.272518
 H   -0.100308   -3.568996    0.386858
 H   -1.399780    0.413555    1.103637
 H   -0.992332    1.455824    2.453078
 H   -0.047376    4.499803   -1.235755
 H    2.378255    4.172513   -1.441106
 H    2.139115    0.747503    1.109222
 H    4.185321    2.685874   -1.191570
 H    0.450619    0.821735    4.098575
 H   -0.718771   -0.525249    4.227789
 H    1.015532   -0.868536    4.115059
 H   -7.764904   -2.485972    0.534531
 H   -6.531710   -3.547260    0.957878
 H   -3.286803    1.231865    0.380533
 H   -2.213395    1.045975   -1.038108
 H   -3.876052    2.365749   -2.283026
 H   -4.570428    2.993588   -0.762363
 H   -2.817914    4.798811   -0.925915
 H   -1.901230    3.760797   -2.057307
 H   -2.269150    5.037552    2.420183
