88 
5l2z_ligand_xtb.xyz
 C   -0.051993   -0.013701    2.719206
 C   -4.757791   -2.466391   -0.143036
 C   -5.648607   -1.385231   -0.285373
 C   -5.177343   -0.090597    0.054878
 C   -3.874880    0.091351    0.539171
 C   -3.491007   -2.275177    0.327064
 C   -6.085924    0.979761   -0.124389
 C   -7.347018    0.757839   -0.591184
 C   -6.996018   -1.500805   -0.749051
 C   -0.067289    6.038965   -1.218082
 C    2.552095   -0.531370    0.133526
 C    0.730242    4.736310   -1.281918
 C    2.139482    4.947516   -0.721763
 C    0.051609    3.625379   -0.516138
 C   -0.001027    3.695609    0.871208
 C   -0.480935    2.646024    1.625293
 C   -0.932719    1.494144    0.995314
 C   -0.967690    1.456770   -0.389964
 C   -0.479988    2.506198   -1.158072
 C   -0.516611    2.383552   -2.653246
 C   -1.286705    0.302696    1.857774
 N   -1.726271   -0.861406    1.115903
 C   -3.027555   -0.989342    0.688366
 N   -7.799315   -0.466382   -0.889635
 O   -0.095703    0.149427    3.924551
 N    1.081629   -0.422598    2.107003
 C    1.186500   -0.828806    0.712360
 C    3.410084   -1.513801   -0.384179
 C    4.677828   -1.103420   -0.788855
 C    5.080400    0.211952   -0.717375
 C    4.205762    1.196794   -0.266929
 C    2.943888    0.806223    0.158630
 N    4.688047    2.506171   -0.209402
 O    2.771354    3.671834   -0.576040
 C    4.085434    3.726293   -0.340376
 O    4.728413    4.745600   -0.271131
 C    2.175949   -0.768613    2.995309
 N   -7.513281   -2.706531   -1.131955
 C    2.987907   -2.975834   -0.552545
 F   -5.681910    2.241003    0.176389
 C    2.579432   -3.522523    0.809108
 C    1.872581   -3.063833   -1.613847
 C    1.413008   -4.496818   -1.877526
 C    2.582418   -5.383643   -2.286262
 C    3.669987   -5.326894   -1.220038
 C    4.141735   -3.886931   -1.026271
 O    3.581795   -3.414708    1.687618
 O    1.521628   -4.010321    1.114539
 H   -5.071831   -3.463774   -0.413050
 H   -3.553575    1.091180    0.781848
 H   -2.818414   -3.115197    0.433604
 H   -8.048464    1.567611   -0.731682
 H    0.443483    6.825584   -1.768616
 H   -0.195111    6.363783   -0.188868
 H   -1.052381    5.891156   -1.653283
 H    0.833701    4.439961   -2.327037
 H    2.740817    5.571293   -1.391764
 H    2.114173    5.439113    0.256135
 H    0.362993    4.576269    1.377968
 H   -0.483145    2.702436    2.703576
 H   -1.375854    0.588223   -0.887728
 H   -1.004686    3.245596   -3.104319
 H    0.493034    2.308721   -3.057228
 H   -1.065266    1.491177   -2.944127
 H   -2.063065    0.608861    2.578365
 H   -1.302965   -1.731308    1.405586
 H    0.448175   -0.271709    0.136446
 H    0.951122   -1.890316    0.640046
 H    5.390177   -1.817334   -1.163447
 H    6.079949    0.482313   -1.025410
 H    2.252614    1.543484    0.535269
 H    5.697130    2.586549   -0.197247
 H    1.960696   -1.700750    3.525823
 H    2.286401    0.019169    3.739508
 H    3.095208   -0.868272    2.425701
 H   -7.132763   -3.546058   -0.732115
 H   -8.506375   -2.697251   -1.297726
 H    1.012187   -2.461055   -1.327780
 H    2.276190   -2.637068   -2.535896
 H    0.949868   -4.898572   -0.976479
 H    0.658598   -4.485683   -2.666709
 H    2.991307   -5.037546   -3.238926
 H    2.241868   -6.411559   -2.420918
 H    3.281709   -5.729107   -0.281952
 H    4.520580   -5.943368   -1.518633
 H    4.955106   -3.858105   -0.299910
 H    4.507309   -3.522856   -1.987738
 H    3.319690   -3.781924    2.546791
