23 
5l3a_ligand_ani.xyz
 C   12.841144  -18.858611  -20.065439
 C   13.649022  -19.957940  -19.725763
 C   11.509883  -19.320039  -19.847345
 C   15.052157  -19.922308  -19.796313
 C   15.612762  -18.736370  -20.225676
 C   14.834449  -17.613069  -20.573868
 O   14.180887  -14.735623  -21.603719
 S   12.998918  -14.969101  -20.794747
 O   11.740101  -14.301694  -21.064990
 C   13.442244  -14.683355  -19.097294
 N   12.614875  -16.589195  -20.836509
 C   13.454403  -17.658747  -20.491814
 N   12.786753  -20.943232  -19.352633
 N   11.496592  -20.567283  -19.422506
 H   10.569362  -18.799932  -19.979331
 H   15.656134  -20.783798  -19.528837
 H   16.692815  -18.654461  -20.304172
 H   15.322030  -16.711270  -20.924745
 H   12.595392  -14.948469  -18.461308
 H   14.320606  -15.282914  -18.847298
 H   13.671248  -13.620662  -18.998172
 H   11.619054  -16.750021  -20.756289
 H   13.019170  -21.874905  -19.045231
