18 
5l4m_ligand_ani.xyz
 C    1.628887    1.397607    0.112037
 C    0.293357    1.692788   -0.067689
 C   -0.590619    0.626111   -0.298650
 N   -0.193753   -0.630820   -0.341875
 C    1.088168   -0.907750   -0.161875
 C    2.051556    0.069663    0.067000
Cl    3.720641   -0.298883    0.294854
Cl    1.526255   -2.582346   -0.229339
 O   -1.900913    0.914489   -0.455395
 C   -2.743286   -0.155241   -0.887005
 C   -3.152341   -1.090846    0.250310
 O   -3.040727   -0.594670    1.490515
 O   -3.598494   -2.182346    0.029175
Cl   -0.278695    3.319688   -0.004995
 H    2.348282    2.190795    0.289628
 H   -2.267548   -0.748304   -1.670269
 H   -3.639199    0.321369   -1.291316
 H   -2.677924    0.304305    1.437120
