49 
5l6h_ligand_dft.xyz
 C   -6.549116    0.487367    0.087064
 C   -1.857418   -1.015266    0.181303
 C   -4.293178   -0.401563   -0.025099
 N    0.461416   -2.561646   -0.213135
 C    2.908278   -1.264412    1.037388
 N   -2.958090   -0.248295    0.389121
 C   -0.751468   -2.843492   -0.679319
 C   -8.242183    2.294851    1.000846
 C   -7.467420    1.469545    0.585179
 C   -5.202708    0.546638    0.450482
 C   -6.991720   -0.534001   -0.762709
 C   -6.080915   -1.470968   -1.229563
 C   -4.736248   -1.420439   -0.874199
 N   -1.888269   -2.152877   -0.522643
 C    0.463416   -1.418063    0.493019
 C   -0.627074   -0.594900    0.726731
 N   -0.260004    0.522300    1.446985
 C    1.028365    0.354076    1.651297
 N    1.522529   -0.796604    1.099503
 O    3.748658   -0.278168    1.552399
 C    3.325585   -1.541257   -0.427110
 O    3.276042   -2.894953   -0.774150
 C    4.774604   -1.050662   -0.431777
 O    5.625730   -2.054388    0.060182
 C    4.742729    0.089253    0.588156
 C    4.433407    1.468510    0.034091
 O    3.178678    1.393160   -0.664731
 S    2.275733    2.738295   -0.710302
 O    2.700518    3.557441   -1.820902
 O    2.237321    3.267199    0.638167
 N    0.853189    2.023326   -1.118806
 H    2.988182   -2.179346    1.634548
 H   -2.775849    0.555299    0.976821
 H   -0.837720   -3.754169   -1.265566
 H   -4.870200    1.340889    1.113547
 H   -8.037883   -0.582646   -1.044011
 H   -6.418378   -2.264438   -1.889249
 H   -4.034127   -2.156904   -1.238194
 H    1.675791    1.048855    2.165501
 H    2.717907   -0.921533   -1.095476
 H    2.333558   -3.150198   -0.730585
 H    5.088352   -0.705165   -1.426373
 H    5.251723   -2.895369   -0.245342
 H    5.705291    0.138774    1.106005
 H    5.211505    1.795499   -0.662949
 H    4.350968    2.180339    0.859364
 H    0.399424    2.517673   -1.877603
 H    0.256602    1.839126   -0.312953
 H   -8.929457    3.023550    1.367778
