33 
5l6o_ligand_ani.xyz
 C    5.158849   -1.575867   -0.556774
 C    3.771638   -1.557246   -0.497354
 C    3.095994   -0.459453    0.047655
 C   -0.652360    0.085285    0.079471
 C   -1.139022   -1.233600    0.277807
 C   -2.485297   -1.489241    0.259955
 C   -3.411956   -0.440670    0.049657
 C   -2.956353    0.845580   -0.114510
 C   -1.574936    1.138499   -0.092274
 C    0.109596    2.636186   -0.210210
 C   -4.870655   -0.799544    0.019975
 C   -5.881420    0.304033   -0.198197
 C    5.895439   -0.507302   -0.056138
 O   -5.221756   -1.953176    0.169389
 N   -1.179168    2.437643   -0.239578
 N    1.102950    1.724341   -0.065352
 C    0.739527    0.463928    0.039446
 N    1.685707   -0.527835    0.102821
 C    3.834122    0.611718    0.558128
 C    5.223505    0.575820    0.501083
 H    5.664125   -2.434278   -0.992582
 H    3.202765   -2.399504   -0.886878
 H   -0.455440   -2.058045    0.468340
 H   -2.869001   -2.494760    0.399895
 H   -3.631429    1.681464   -0.262518
 H    0.446049    3.666346   -0.313933
 H   -6.878507   -0.137966   -0.222677
 H   -5.827074    1.040825    0.610999
 H   -5.688785    0.829341   -1.139891
 H    6.981035   -0.517823   -0.097190
 H    1.320880   -1.456929   -0.034398
 H    3.315606    1.461975    0.986733
 H    5.787393    1.416961    0.897435
