35 
5l6p_ligand_ani.xyz
 C    5.595119    0.184303    0.656263
 C    4.218269    0.378657    0.617893
 C    3.403555   -0.583640    0.014819
 C   -0.259378    0.366252   -0.040230
 C   -0.895175   -0.893784    0.076664
 C   -2.261481   -1.016482    0.079767
 C   -3.062351    0.146380   -0.033677
 C   -2.465512    1.382487   -0.141861
 C   -1.064351    1.521345   -0.137727
 C    0.775260    2.831245   -0.199669
 C   -5.288483   -1.004045    0.098931
 C   -6.767929   -0.666500    0.083104
 C    6.180067   -0.950432    0.103784
 O   -4.889366   -2.145341    0.242416
 N   -4.471127    0.091067   -0.035725
 N   -0.527901    2.776367   -0.225915
 N    1.663991    1.811333   -0.101255
 C    1.163663    0.595161   -0.054680
 N    1.994852   -0.495142   -0.028110
 C    3.990215   -1.731949   -0.529294
 C    5.366829   -1.908954   -0.491936
 H    6.219037    0.941119    1.125743
 H    3.770285    1.268574    1.045129
 H   -0.307937   -1.802675    0.189826
 H   -2.736821   -1.983350    0.167365
 H   -3.047690    2.295059   -0.225976
 H    1.220699    3.822718   -0.258007
 H   -7.310985   -1.528975   -0.304340
 H   -7.107799   -0.484317    1.108000
 H   -7.002003    0.216086   -0.520094
 H    7.257447   -1.085535    0.139919
 H   -4.928819    0.984115   -0.142054
 H    1.537956   -1.372241   -0.220913
 H    3.360002   -2.488346   -0.993390
 H    5.802957   -2.805151   -0.926424
