50 
5l7h_ligand_xtb.xyz
 C    1.732235    2.780573   -1.495948
 C    1.005964   -1.432431    1.376532
 C    0.813633   -1.306752   -1.008381
 C    2.400173    2.249907   -0.405823
 C    0.293401    2.042593    0.733255
 C    1.602898   -1.232010    0.135354
 C    3.037312   -0.978288    0.031514
 C   -1.130873   -1.801589    0.324290
 C   -0.374905    2.563002   -0.361736
 C    1.673723    1.868437    0.715171
 C    3.829908   -0.122486    0.754472
 C    3.967034   -1.610500   -0.856025
 C   -1.875231    2.666239   -0.349879
 C   -2.489483    1.270838   -0.177244
 C   -3.965196    1.214890   -0.498564
 C    3.690290   -2.658019   -1.868584
 N   -3.423624   -1.465022   -0.531042
 C    0.358396    2.927010   -1.484634
 C   -0.344713   -1.706675    1.466142
 C   -0.534764   -1.594242   -0.913013
 C   -2.594466   -2.150911    0.443122
 C    3.545992    0.888493    1.821048
 N    5.172142   -1.157236   -0.649778
 O   -4.607435   -0.435077    1.466461
 O   -5.806319   -0.680846   -0.680114
 O    5.103211   -0.226338    0.332836
 O    2.207856    1.314050    1.847106
 S   -4.591860   -0.401865    0.032221
 H    2.298349    3.074544   -2.367329
 H    1.605376   -1.376615    2.272248
 H    1.256361   -1.125994   -1.976021
 H    3.472350    2.142397   -0.447738
 H   -0.240227    1.747768    1.622319
 H   -2.217359    3.101645   -1.290376
 H   -2.203726    3.316352    0.463601
 H   -2.353661    0.932824    0.850612
 H   -1.959493    0.573205   -0.826319
 H   -4.178483    1.302745   -1.559159
 H   -4.540804    1.947620    0.061033
 H    2.894170   -3.313556   -1.523034
 H    3.379416   -2.200790   -2.807098
 H    4.594582   -3.231081   -2.052276
 H   -3.813800   -2.044070   -1.254829
 H   -0.146752    3.328258   -2.350552
 H   -0.796451   -1.858029    2.435631
 H   -1.136166   -1.658921   -1.807768
 H   -2.959691   -1.861130    1.432802
 H   -2.712053   -3.236610    0.348285
 H    4.240449    1.732523    1.699023
 H    3.721290    0.449786    2.810405
