50 
5l7h_ligand_ani.xyz
 C    2.052173    3.438007   -1.117219
 C    0.785468   -1.366445    1.335787
 C    0.658655   -1.547171   -1.049096
 C    2.630453    2.710603   -0.080809
 C    0.426295    1.932615    0.528865
 C    1.432300   -1.336401    0.097145
 C    2.886893   -1.134699   -0.011704
 C   -1.321020   -1.944355    0.276544
 C   -0.153167    2.649426   -0.514278
 C    1.801681    1.959856    0.746597
 C    3.722443   -0.344805    0.730048
 C    3.794740   -1.836322   -0.874692
 C   -1.649285    2.611288   -0.768814
 C   -2.321819    1.387853   -0.150034
 C   -3.760735    1.205188   -0.605520
 C    3.503605   -2.862653   -1.928226
 N   -3.633550   -1.518236   -0.507538
 C    0.682182    3.410984   -1.337060
 C   -0.567061   -1.669769    1.419428
 C   -0.688492   -1.858559   -0.964119
 C   -2.779690   -2.326872    0.374518
 C    3.536761    0.692910    1.797479
 N    5.033264   -1.504391   -0.633657
 O   -4.346140   -0.182429    1.551590
 O   -5.852194   -0.376420   -0.480417
 O    4.992249   -0.568327    0.377956
 O    2.233332    1.235358    1.831571
 S   -4.527523   -0.249019    0.108251
 H    2.690584    4.032054   -1.767604
 H    1.338176   -1.171128    2.250601
 H    1.117778   -1.464372   -2.030079
 H    3.705130    2.739632    0.070131
 H   -0.169458    1.312556    1.190518
 H   -1.822871    2.613693   -1.854249
 H   -2.119654    3.529073   -0.386199
 H   -2.302599    1.464665    0.942786
 H   -1.742924    0.497760   -0.425654
 H   -3.848083    1.099842   -1.692544
 H   -4.406270    2.030887   -0.284807
 H    2.727850   -3.557396   -1.592588
 H    3.146884   -2.389772   -2.850861
 H    4.411859   -3.420730   -2.166753
 H   -4.248638   -2.054937   -1.109269
 H    0.258344    3.983873   -2.159688
 H   -1.050022   -1.700343    2.394253
 H   -1.266078   -2.012075   -1.872355
 H   -3.119869   -2.241601    1.409659
 H   -2.899875   -3.366103    0.054673
 H    4.299424    1.470527    1.671921
 H    3.690437    0.257065    2.789799
