66 
5l8a_ligand_xtb.xyz
 C    8.450207   -0.233472    0.194423
 O    7.260757   -0.820053    0.678470
 C    6.127565   -0.691281   -0.031133
 C    6.006783    0.015446   -1.207994
 C    4.771361    0.097934   -1.853537
 C    4.982066   -1.353077    0.514128
 C    5.083147   -2.083012    1.713948
 C    3.998736   -2.735533    2.233083
 C    2.774423   -2.696715    1.556633
 C    2.645679   -1.990669    0.390492
 C    3.738185   -1.286682   -0.164648
 C    3.650574   -0.526254   -1.365038
 C    2.338069   -0.385954   -2.081321
 N    1.373667    0.413010   -1.267700
 C   -0.011255    0.329055   -1.797287
 C   -0.881737    1.181280   -0.947133
 C    1.801308    1.827582   -1.124055
 C    1.036394    2.533881   -0.001038
 C   -0.404521    2.189913   -0.136715
 N   -1.475315    2.722571    0.487943
 C   -1.484832    3.738679    1.503769
 C   -1.275599    3.127831    2.892969
 O    0.007151    2.532784    2.932828
 N   -2.600843    2.118267    0.129067
 C   -2.275193    1.175770   -0.745509
 C   -3.206592    0.226672   -1.392783
 O   -2.769828   -0.680381   -2.086536
 N   -4.502358    0.464950   -1.155909
 C   -5.565868   -0.383605   -1.653955
 C   -6.230630   -1.146938   -0.536511
 C   -5.485600   -2.043542    0.220245
 C   -6.075965   -2.746401    1.254274
 C   -7.418693   -2.561367    1.540535
 C   -8.166178   -1.669870    0.791027
 C   -7.573179   -0.961747   -0.240617
 H    9.220325   -0.495383    0.917375
 H    8.363135    0.855157    0.136180
 H    8.721650   -0.634776   -0.785605
 H    6.852742    0.514760   -1.649450
 H    4.712025    0.664460   -2.771894
 H    6.040400   -2.118384    2.208094
 H    4.084020   -3.294386    3.151460
 H    1.927697   -3.235266    1.954550
 H    1.695887   -2.027741   -0.125757
 H    1.887165   -1.363102   -2.270397
 H    2.474569    0.120599   -3.038491
 H    1.375083    0.002208   -0.324330
 H   -0.375817   -0.701221   -1.790584
 H   -0.013815    0.672238   -2.836457
 H    2.873838    1.840572   -0.918882
 H    1.615360    2.325381   -2.078514
 H    1.397938    2.225173    0.983869
 H    1.197405    3.610436   -0.080710
 H   -2.455305    4.235225    1.472210
 H   -0.687628    4.455477    1.297708
 H   -2.053463    2.375775    3.078901
 H   -1.362036    3.923785    3.641233
 H    0.189029    2.248458    3.834453
 H   -4.738197    1.209764   -0.517506
 H   -5.098797   -1.075413   -2.361244
 H   -6.297881    0.232421   -2.183838
 H   -4.441049   -2.192311   -0.014180
 H   -5.491099   -3.444889    1.834301
 H   -7.881577   -3.114011    2.343998
 H   -9.213425   -1.524677    1.008986
 H   -8.160808   -0.268252   -0.824888
