66 
5l8a_ligand_ani.xyz
 C    8.681666    0.540830   -0.185607
 O    7.669049   -0.015896    0.630175
 C    6.487007   -0.316544    0.036550
 C    6.220113   -0.116505   -1.296991
 C    4.950705   -0.460110   -1.815309
 C    5.485395   -0.878155    0.901232
 C    5.736669   -1.097129    2.278748
 C    4.772978   -1.633408    3.092507
 C    3.510892   -1.970925    2.565454
 C    3.239228   -1.758432    1.237985
 C    4.217595   -1.215703    0.359781
 C    3.957526   -0.992860   -1.034626
 C    2.601930   -1.305257   -1.633501
 N    1.547057   -0.328451   -1.211379
 C    0.132900   -0.772138   -1.516653
 C   -0.799495    0.311273   -1.070306
 C    1.799099    1.083168   -1.789486
 C    1.009972    2.109325   -0.989781
 C   -0.381430    1.596724   -0.837591
 N   -1.463170    2.307829   -0.432866
 C   -1.528350    3.658754    0.087905
 C   -1.428792    3.680296    1.600641
 O   -0.118015    3.279143    1.953848
 N   -2.563589    1.546549   -0.385882
 C   -2.177721    0.339294   -0.790321
 C   -3.118733   -0.802753   -0.909376
 O   -2.740917   -1.920615   -1.237767
 N   -4.406870   -0.495187   -0.629439
 C   -5.459864   -1.463271   -0.873448
 C   -6.700539   -1.148961   -0.073664
 C   -6.623304   -1.013255    1.312600
 C   -7.763015   -0.737401    2.060284
 C   -8.994563   -0.585512    1.427581
 C   -9.079516   -0.715927    0.045172
 C   -7.937164   -0.998441   -0.698657
 H    9.535901    0.707968    0.470926
 H    8.361797    1.495654   -0.621754
 H    8.967090   -0.147342   -0.991279
 H    6.959518    0.308498   -1.965592
 H    4.753697   -0.275759   -2.870944
 H    6.712263   -0.831193    2.672003
 H    4.979167   -1.799889    4.146864
 H    2.749411   -2.391361    3.216924
 H    2.256911   -2.003155    0.844475
 H    2.290709   -2.320998   -1.362509
 H    2.672982   -1.283722   -2.729935
 H    1.631267   -0.224379   -0.178092
 H   -0.100117   -1.713866   -1.016657
 H    0.045647   -0.950054   -2.595671
 H    2.870041    1.277378   -1.761787
 H    1.475799    1.071499   -2.833889
 H    1.453666    2.266680    0.001501
 H    1.045789    3.071511   -1.514026
 H   -2.484730    4.074385   -0.237454
 H   -0.715369    4.245851   -0.344516
 H   -2.188497    2.997455    2.002394
 H   -1.645718    4.696811    1.960551
 H   -0.111333    3.055713    2.891678
 H   -4.637135    0.475647   -0.456122
 H   -5.052340   -2.442311   -0.599233
 H   -5.696093   -1.515019   -1.945412
 H   -5.657477   -1.121813    1.803464
 H   -7.689009   -0.635332    3.140290
 H   -9.884752   -0.366066    2.011847
 H  -10.036959   -0.598868   -0.457322
 H   -8.004200   -1.101996   -1.780552
