69 
5l8o_ligand_dft.xyz
 C    4.173240   -0.013622   -1.709565
 C    4.254357    1.506961   -1.589019
 C    5.019966    1.890401   -0.325522
 O    5.060111    3.291411   -0.117822
 C    4.351982    1.277282    0.894071
 C    4.209471   -0.252029    0.791568
 C    3.540522   -0.840033    2.043211
 C    2.032299   -0.588509    2.133500
 O    1.715053    0.776960    2.383635
 C    1.316087   -0.995951    0.842607
 C    1.977540   -0.365831   -0.407712
 C    3.493230   -0.714854   -0.511199
 C    1.181812   -0.692310   -1.684633
 C   -0.320048   -0.367142   -1.601417
 O   -0.543535    1.035105   -1.640518
 C   -0.961078   -1.050576   -0.372590
 C   -0.161972   -0.618664    0.877940
 C   -1.015347   -1.088160    2.056211
 C   -2.467349   -0.923291    1.543938
 C   -2.378617   -0.559894    0.034138
 C   -0.961987   -2.575150   -0.576333
 C    3.710898   -2.226567   -0.711094
 C   -3.594789   -1.055402   -0.767558
 C   -3.507050   -0.716637   -2.262015
 C   -4.917166   -0.534431   -0.170904
 C   -5.066203    0.984401   -0.191941
 O   -6.523283    2.785757    0.283649
 C   -6.402037    1.442220    0.336572
 O   -7.281668    0.734650    0.766070
 H    3.679833   -0.297163   -2.644849
 H    5.197351   -0.408056   -1.784610
 H    3.256180    1.960270   -1.545955
 H    4.753704    1.921758   -2.475210
 H    6.046714    1.489708   -0.409165
 H    5.450972    3.692562   -0.903267
 H    3.375046    1.751949    1.022167
 H    4.941326    1.525539    1.785868
 H    5.230181   -0.662464    0.747583
 H    4.030769   -0.444711    2.944750
 H    3.697895   -1.925283    2.071786
 H    1.629775   -1.202899    2.955077
 H    2.252161    1.076898    3.126244
 H    1.395652   -2.089436    0.784288
 H    1.913298    0.721129   -0.258798
 H    1.578189   -0.121580   -2.529997
 H    1.299076   -1.751827   -1.938114
 H   -0.789330   -0.732970   -2.518088
 H   -0.098884    1.433417   -0.881996
 H   -0.196827    0.480293    0.909980
 H   -0.800923   -2.136910    2.297116
 H   -0.813959   -0.502518    2.957385
 H   -3.032708   -1.853197    1.678199
 H   -3.007728   -0.151617    2.101532
 H   -2.345789    0.532403   -0.061873
 H   -1.472548   -2.837223   -1.509774
 H    0.044768   -2.998389   -0.630829
 H   -1.486192   -3.089993    0.235172
 H    4.781275   -2.459290   -0.668585
 H    3.213680   -2.840556    0.044900
 H    3.347129   -2.553332   -1.690895
 H   -3.639538   -2.149712   -0.670883
 H   -3.177600    0.315589   -2.422823
 H   -2.799586   -1.368648   -2.782238
 H   -4.481209   -0.847052   -2.747833
 H   -5.751620   -0.975081   -0.728428
 H   -5.033228   -0.884915    0.859828
 H   -4.952019    1.391374   -1.203661
 H   -4.293576    1.477510    0.410306
 H   -7.401682    2.990091    0.642058
