32 
5l8t_ligand_ani.xyz
 O   -2.602842   -1.546043   -0.888620
 C    4.205374   -1.404919   -0.192433
 C    3.023167   -1.915431   -0.703268
 C   -1.032945   -0.209310    0.747142
 C    3.394535    1.995675    0.895272
 C    3.227383    0.606956    0.326692
 C    1.970405    0.172030   -0.161390
 N    0.899906    1.065712   -0.140189
 C   -0.465750    0.651203   -0.399756
 C   -1.338790    1.891375   -0.646622
 C   -2.776404    1.550725   -1.056111
 C   -3.524246    0.751962    0.009826
 S   -2.678525   -0.788627    0.361612
 O   -3.259240   -1.378971    1.560740
 C    1.886050   -1.116207   -0.689649
 N    4.303876   -0.170246    0.310940
 H    5.116044   -2.000984   -0.183208
 H    2.985465   -2.922948   -1.107851
 H   -0.440539   -1.113742    0.916319
 H   -1.085856    0.344984    1.690890
 H    4.452110    2.165474    1.109363
 H    2.836054    2.124286    1.832238
 H    3.050442    2.767887    0.196096
 H    0.983244    1.792665    0.559411
 H   -0.470699    0.045666   -1.313207
 H   -1.352680    2.501050    0.270025
 H   -0.865617    2.499053   -1.425708
 H   -2.771283    0.978979   -1.991858
 H   -3.336269    2.472724   -1.245261
 H   -3.609792    1.297869    0.955699
 H   -4.526956    0.457020   -0.314154
 H    0.950234   -1.504461   -1.085023
