32 
5l8t_ligand_xtb.xyz
 O   -2.502071   -1.540591   -0.840847
 C    4.184574   -1.394042   -0.198028
 C    3.005232   -1.906315   -0.707615
 C   -1.024031   -0.140131    0.844478
 C    3.400044    1.977406    0.894574
 C    3.206100    0.604324    0.319950
 C    1.950611    0.180754   -0.167370
 N    0.887000    1.064808   -0.168667
 C   -0.483000    0.644040   -0.350548
 C   -1.354677    1.871503   -0.628875
 C   -2.758159    1.490412   -1.098315
 C   -3.542610    0.763803   -0.025165
 S   -2.655210   -0.774054    0.364884
 O   -3.277048   -1.411185    1.492677
 C    1.871803   -1.110672   -0.688520
 N    4.272061   -0.171005    0.299884
 H    5.097521   -1.972871   -0.180947
 H    2.962130   -2.907186   -1.107986
 H   -0.395094   -0.994413    1.084668
 H   -1.163718    0.475549    1.729393
 H    4.440925    2.085363    1.183842
 H    2.776886    2.126143    1.777604
 H    3.154586    2.742976    0.159492
 H    0.994890    1.834818    0.475250
 H   -0.526612   -0.013441   -1.225112
 H   -1.420071    2.488407    0.271930
 H   -0.867138    2.464545   -1.404966
 H   -2.683025    0.832330   -1.965938
 H   -3.294850    2.392566   -1.401444
 H   -3.616103    1.321140    0.904505
 H   -4.535482    0.479409   -0.362378
 H    0.942722   -1.499380   -1.076607
