38 
5l98_ligand_xtb.xyz
 C    0.885716   -1.626913    2.200000
 C    0.727067   -0.969633    0.820498
 N    1.689254    0.100831    0.649217
 C    2.905657   -0.031119    0.038145
 C    3.626664    1.119317   -0.359097
 C    3.065270    2.497562   -0.158854
 N    4.815658    1.052488   -0.922070
 C    5.377465   -0.128280   -1.132998
 C    4.765363   -1.315935   -0.776510
 C    3.516879   -1.267513   -0.180997
 C   -0.671636   -0.424906    0.653792
 C   -1.530005   -0.967539   -0.287445
 C   -2.817050   -0.472054   -0.451152
 C   -3.263856    0.575146    0.358950
 O   -4.538375    1.073996    0.270223
 C   -5.414632    0.237214   -0.450826
 C   -4.741654   -0.250994   -1.732766
 O   -3.609147   -1.031080   -1.420906
 C   -2.396252    1.131837    1.289887
 C   -1.114731    0.640714    1.432137
 H    0.705196   -0.899917    2.986851
 H    0.174699   -2.442157    2.307086
 H    1.893806   -2.016452    2.315599
 H    0.898889   -1.730055    0.047812
 H    1.306951    1.030914    0.675559
 H    2.903694    2.702675    0.899496
 H    2.117895    2.614940   -0.686800
 H    3.775538    3.219318   -0.550947
 H    6.351743   -0.106874   -1.601545
 H    5.250486   -2.263875   -0.953809
 H    3.027408   -2.183531    0.113275
 H   -1.219918   -1.783555   -0.921373
 H   -6.302462    0.832083   -0.669713
 H   -5.693254   -0.630459    0.163162
 H   -5.408515   -0.889747   -2.313348
 H   -4.443307    0.617135   -2.336627
 H   -2.754702    1.947690    1.896807
 H   -0.459949    1.083868    2.167345
