34 
5l99_ligand_dft.xyz
 C   -0.730233   -2.223465   -0.552210
 C   -0.595358   -0.964467    0.309471
 N   -1.504728    0.098993   -0.097819
 C   -2.884871    0.000562    0.036826
 C   -3.713206    0.918963   -0.654677
 C   -3.108078    1.961682   -1.556753
 N   -5.037426    0.916628   -0.538011
 C   -5.618826    0.019464    0.264127
 C   -4.895307   -0.916474    0.985584
 C   -3.509670   -0.931462    0.868394
 C    0.811701   -0.386402    0.354041
 C    1.893435   -0.957347   -0.295790
 C    3.133457   -0.332876   -0.159569
 C    3.248130    0.834731    0.618477
 C    4.598261    1.336793    0.647463
 C    5.442118    0.571189   -0.079588
 S    4.667987   -0.794771   -0.840466
 N    2.199982    1.392929    1.249787
 C    1.032997    0.788356    1.107442
 H   -0.450633   -2.015707   -1.591066
 H   -1.768274   -2.566703   -0.550447
 H   -0.103387   -3.038471   -0.175972
 H   -0.855579   -1.225564    1.343476
 H   -1.197061    0.584016   -0.929256
 H   -2.379308    2.582254   -1.020190
 H   -2.592189    1.511090   -2.416311
 H   -3.903057    2.603707   -1.938369
 H   -6.703282    0.061780    0.326396
 H   -5.400455   -1.629828    1.628873
 H   -2.930810   -1.661386    1.424584
 H    1.789558   -1.860477   -0.888326
 H    4.884891    2.226547    1.193400
 H    6.503307    0.719783   -0.228103
 H    0.186396    1.249958    1.611644
