42 
5l9i_ligand_ani.xyz
 O   -2.766660   -1.959753   -1.078770
 C   -2.705674   -0.587079   -0.735691
 C   -3.913929   -0.243785    0.131875
 O   -5.102850   -0.424227   -0.609326
 C   -3.778505    1.160776    0.696759
 O   -3.872777    2.034868   -0.420209
 C   -2.435814    1.273493    1.410129
 O   -1.357815    0.949488    0.543065
 C   -1.407065   -0.364764    0.045423
 O   -1.328640   -1.274050    1.126102
 C   -0.170052   -0.523551   -0.858115
 N    1.038592   -0.506563   -0.004891
 C    2.246909   -1.139135   -0.593423
 C    3.097583   -1.766354    0.502359
 O    4.274526   -2.012267    0.426756
 C    3.056736   -0.227954   -1.530069
 C    4.008355    0.791514   -0.898403
 C    3.348299    1.924688   -0.131572
 O    2.167372    1.930139    0.206811
 N    4.162508    2.961658    0.172461
 O    2.347450   -2.090151    1.579069
 H   -3.687020   -2.124570   -1.335034
 H   -2.706544    0.050398   -1.632776
 H   -3.951716   -0.957423    0.960638
 H   -5.177460    0.347857   -1.191259
 H   -4.600100    1.343563    1.405695
 H   -3.758565    2.944549   -0.117214
 H   -2.432199    0.618218    2.289591
 H   -2.256334    2.305003    1.733453
 H   -1.600338   -2.134893    0.760826
 H   -0.233180   -1.470315   -1.407894
 H   -0.147724    0.292091   -1.587804
 H    1.268957    0.488604    0.230788
 H    0.801552   -0.996663    0.876949
 H    1.905229   -1.995830   -1.192322
 H    3.657890   -0.881234   -2.166926
 H    2.344957    0.288491   -2.186305
 H    4.622486    1.229562   -1.695423
 H    4.701244    0.280627   -0.220183
 H    5.144105    2.958836   -0.050563
 H    3.786245    3.725086    0.713610
 H    2.944913   -2.517085    2.215557
