44 
5l9o_ligand_ani.xyz
 O    4.655992    2.167833   -0.362209
 C    4.346830    0.775986   -0.362366
 C    3.426111    0.567610    0.829380
 O    2.310371    1.427624    0.712028
 C    2.981638   -0.884476    1.030970
 O    2.155295   -1.024275    2.174899
 C    2.212119   -1.557318   -0.110277
 O    3.052808   -1.800855   -1.244265
 C    0.995877   -0.810357   -0.671580
 O    0.460152   -1.588179   -1.734653
 C   -0.126840   -0.623217    0.343784
 N   -1.404212   -0.422092   -0.394082
 C   -2.627874   -0.577208    0.418571
 C   -3.216343   -1.981136    0.294088
 O   -4.090987   -2.409998    1.001670
 C   -3.735637    0.442056    0.082654
 C   -3.481398    1.875388    0.557109
 C   -2.530282    2.676281   -0.320267
 O   -1.807332    2.169593   -1.174358
 N   -2.518040    4.011965   -0.097735
 O   -2.678731   -2.683730   -0.724268
 H    4.936044    2.419533   -1.248931
 H    5.253749    0.165592   -0.249723
 H    3.830593    0.484544   -1.285603
 H    3.995481    0.847417    1.734239
 H    2.683679    2.276564    0.428520
 H    3.908709   -1.471913    1.171657
 H    2.507278   -0.466837    2.881310
 H    1.842854   -2.514878    0.286984
 H    3.616472   -2.559932   -1.050306
 H    1.318546    0.169310   -1.051960
 H    1.222787   -1.886001   -2.251789
 H    0.089228    0.219817    1.000356
 H   -0.205391   -1.518715    0.969813
 H   -1.417856    0.513718   -0.855657
 H   -1.400218   -1.133753   -1.147488
 H   -2.372163   -0.462136    1.478729
 H   -3.914731    0.439581   -0.998266
 H   -4.649267    0.076364    0.560138
 H   -4.436665    2.412882    0.599485
 H   -3.085100    1.876066    1.581180
 H   -3.137353    4.454657    0.560891
 H   -1.929865    4.589383   -0.679091
 H   -3.126782   -3.546128   -0.734902
