44 
5l9o_ligand_xtb.xyz
 O    4.180723    2.485526   -0.057591
 C    4.110798    1.082494   -0.207085
 C    3.218569    0.585349    0.938277
 O    1.992391    1.279695    0.935766
 C    2.985416   -0.937013    0.907219
 O    2.190882   -1.358305    1.988632
 C    2.316054   -1.514583   -0.357469
 O    3.163635   -1.496375   -1.483794
 C    1.032317   -0.795345   -0.799925
 O    0.477964   -1.455260   -1.919922
 C   -0.038847   -0.810269    0.289550
 N   -1.305320   -0.393222   -0.340410
 C   -2.512561   -0.604453    0.472267
 C   -3.019828   -2.050451    0.361609
 O   -3.753619   -2.550983    1.158254
 C   -3.652563    0.329911    0.035331
 C   -3.513263    1.780205    0.516183
 C   -2.523649    2.620942   -0.268896
 O   -1.531180    2.149653   -0.819736
 N   -2.784181    3.925086   -0.314355
 O   -2.576734   -2.641456   -0.744542
 H    4.800441    2.846241   -0.698669
 H    5.102005    0.621859   -0.127067
 H    3.670057    0.819287   -1.175515
 H    3.746221    0.809822    1.883365
 H    2.219669    2.205142    0.765692
 H    3.985566   -1.403721    0.972387
 H    2.540904   -0.982697    2.805281
 H    2.044381   -2.551651   -0.103896
 H    3.929058   -2.059693   -1.327965
 H    1.276133    0.241068   -1.066512
 H    1.202398   -1.656807   -2.525315
 H    0.240713   -0.126693    1.088188
 H   -0.139050   -1.821627    0.686024
 H   -1.265500    0.657425   -0.601320
 H   -1.357678   -0.936592   -1.216743
 H   -2.273101   -0.417973    1.524428
 H   -3.740684    0.306533   -1.052796
 H   -4.578907   -0.067970    0.453462
 H   -4.492910    2.255883    0.464841
 H   -3.200322    1.794721    1.563627
 H   -3.588403    4.336897    0.126832
 H   -2.145060    4.533825   -0.803688
 H   -2.916571   -3.547019   -0.830171
