67 
5laz_ligand_dft.xyz
 C    6.843584   -0.462555   -1.216268
 C    5.669850    0.300935   -0.705036
 C    4.488818    0.262230   -1.446227
 C    3.366823    0.958140   -1.017072
 C    3.413799    1.696861    0.171525
 C    4.601483    1.731163    0.906881
 C    1.262491    3.120988   -0.277556
 C    0.248527    1.070458    0.291064
 C   -0.813360    0.096216    0.775462
 C   -0.444960   -1.583656    2.645891
 C    0.944428   -3.536645    2.404168
 C    1.240150   -3.143010    1.102481
 C   -3.633078   -0.816764   -1.509774
 C   -4.902120   -1.320512   -1.738343
 C   -5.632387   -1.737147   -0.624556
 C   -5.124437   -1.660176    0.668563
 C   -3.843250   -1.150903    0.881286
 C   -3.075674   -0.718102   -0.202448
 C   -2.257401    3.070540    1.070077
 O    7.913421   -0.381570   -0.402874
 O    6.854428   -1.092881   -2.246372
 C    5.727245    1.042394    0.474566
 C    2.197668    2.402685    0.729646
 C   -0.133246    2.512477   -0.058490
 N    1.270204    1.373089    1.352786
 C   -0.173195   -1.174023    1.339762
 C    0.096403   -2.752244    3.174516
Cl    2.316516   -4.085929    0.116826
 C    0.676876   -1.982588    0.581652
 F    0.985299   -1.627135   -0.668834
 C   -1.777744   -0.143773   -0.339865
 C   -1.528277    0.090513   -1.718898
 O   -0.550834    0.591381   -2.327477
 N   -2.692456   -0.327609   -2.389838
Cl   -7.251139   -2.386923   -0.873054
 N   -0.784200    3.134685    1.100084
 C   -2.886372    4.028613    0.084393
 C   -4.226692    4.632119    0.388005
 C   -2.991217    5.492568    0.436501
 H    4.459504   -0.318883   -2.361485
 H    2.465181    0.913450   -1.621512
 H    4.650014    2.305865    1.828693
 H    1.284206    4.203930   -0.128403
 H    1.579489    2.923860   -1.303172
 H    0.756591    0.636428   -0.565101
 H   -1.329551    0.557512    1.634505
 H   -1.112897   -0.976176    3.251740
 H    1.380267   -4.448712    2.796389
 H   -5.321366   -1.394231   -2.736403
 H   -5.727367   -2.001174    1.503376
 H   -3.447008   -1.104050    1.893125
 H   -2.620672    3.291604    2.081548
 H   -2.560503    2.049163    0.823853
 H    8.612687   -0.907489   -0.822345
 H    6.646646    1.077765    1.047766
 H    2.507114    3.069270    1.537232
 H   -0.719814    2.517647   -0.979416
 H    0.722795    1.824618    2.102675
 H    1.751988    0.544098    1.705935
 H   -0.143956   -3.054492    4.188502
 H   -2.775048   -0.280191   -3.391680
 H   -0.536365    4.120884    1.123971
 H   -2.696996    3.796459   -0.961282
 H   -4.923533    4.773050   -0.431571
 H   -4.697384    4.368345    1.331115
 H   -2.844032    6.228458   -0.347934
 H   -2.638432    5.808300    1.416388
