54 
5lb7_ligand_ani.xyz
 N   -3.092769   -1.754277    0.039648
 C   -4.055944   -0.648619   -0.293584
 C   -3.164822    0.482504   -0.834340
 O   -2.935256    0.557421   -2.027328
 C   -4.864048   -0.309499    0.952043
 O   -3.934317   -0.331897    2.031960
 N   -2.543639    1.291074    0.097824
 C   -1.133815    1.554011   -0.153911
 C   -0.345766    0.269028    0.172156
 O   -0.695031   -0.472591    1.085617
 C   -0.630474    2.742352    0.675885
 C    0.810211    3.072913    0.357148
 C    1.138171    3.723932   -0.835319
 C    1.846069    2.670858    1.203319
 C    2.464820    3.978370   -1.169789
 C    3.175822    2.918527    0.871501
 C    3.488533    3.573828   -0.315733
 N    0.713278    0.015377   -0.634399
 C    1.416134   -1.252447   -0.697053
 C    0.510210   -2.318156   -1.312962
 O    1.221651   -3.310312   -1.870575
 C    1.984484   -1.683297    0.672185
 C    2.915697   -2.901063    0.670608
 C    3.374886   -3.177427    2.104560
 C    4.125419   -2.713778   -0.244824
 O   -0.698950   -2.301456   -1.330656
 H   -3.560881   -2.672850    0.129989
 H   -2.349840   -1.803452   -0.682472
 H   -2.621249   -1.501489    0.933355
 H   -4.693924   -0.949103   -1.119974
 H   -5.654089   -1.056217    1.106756
 H   -5.333094    0.675281    0.839970
 H   -4.364287   -0.028970    2.839623
 H   -2.726463    1.010962    1.059701
 H   -1.033447    1.782574   -1.221185
 H   -0.741982    2.506060    1.741853
 H   -1.284788    3.593799    0.458859
 H    0.342112    4.039841   -1.509677
 H    1.603093    2.145796    2.125868
 H    2.699265    4.490343   -2.099681
 H    3.970086    2.599441    1.543763
 H    4.525706    3.768880   -0.576087
 H    1.014528    0.759043   -1.246034
 H    2.242631   -1.111381   -1.397298
 H    0.584440   -3.950724   -2.230315
 H    2.529420   -0.814618    1.066176
 H    1.148385   -1.850926    1.356660
 H    2.349488   -3.772268    0.319722
 H    4.005344   -4.072443    2.153170
 H    3.959602   -2.333923    2.494685
 H    2.519146   -3.329987    2.772246
 H    3.842401   -2.663519   -1.300362
 H    4.670070   -1.794397    0.009078
 H    4.821918   -3.552517   -0.133391
