76 
5lcj_ligand_ani.xyz
 C   -5.004836    3.216561   -0.325521
 C   -6.121350    2.781458   -1.016646
 N   -6.306644    1.505076   -1.364756
 C   -5.321653    0.671648   -1.011111
 C   -4.626104   -1.718676   -1.265840
 C   -5.144109   -3.014594   -1.159386
 C   -2.440453   -2.731212   -1.290943
 C   -1.005466   -2.588595   -1.368882
 C    0.193256   -2.450105   -1.423385
 C    1.649289   -2.301291   -1.457766
 C    2.286939   -2.519156   -0.076935
 C    6.671339    0.233700   -1.490977
 C    6.498508    1.758470   -1.541629
 C    7.659838    2.605760   -0.990827
 C    7.841560    2.573650    0.506451
 C    8.449008    1.598237    1.185486
 C    8.957721    0.323492    0.567284
 C    7.895880   -0.786341    0.536360
 C   -4.028207    2.253624    0.013192
 N   -2.911232    2.608386    0.720457
 C    0.734912    2.245820    0.175312
 C    0.967000    0.946174    0.611930
 C   -0.088835    0.175920    1.087039
 C   -1.390373    0.679623    1.108871
 C   -2.378594   -1.213794    2.373506
 O   -1.361647   -1.591876    2.934211
 C   -3.710790   -1.931470    2.549882
 C   -3.557614   -3.259106    3.272978
 N   -2.459448   -0.110559    1.568000
 C   -0.553575    2.764036    0.219450
 C   -1.626307    1.993512    0.660345
 N   -4.205010    0.978741   -0.344276
 N   -5.514792   -0.641406   -1.351732
 C   -4.257005   -4.077798   -1.097556
 N   -2.929603   -3.971318   -1.167593
 N    3.732887   -2.507515   -0.112862
 C    4.432806   -1.346309   -0.156118
 O    3.936710   -0.234775   -0.229325
 O    5.760082   -1.575478   -0.112094
 C    6.565594   -0.371300   -0.082613
 C   -3.239726   -1.585500   -1.314516
Cl   -4.806909    4.881929    0.117250
 H   -6.901280    3.487199   -1.297633
 H   -6.216790   -3.183632   -1.106816
 H    1.904206   -1.298444   -1.817388
 H    2.080621   -3.017877   -2.164493
 H    1.970788   -3.485449    0.327476
 H    1.930988   -1.740771    0.610438
 H    5.887979   -0.214023   -2.110042
 H    7.626409   -0.056113   -1.953282
 H    5.566376    2.017402   -1.018530
 H    6.346407    2.047046   -2.589160
 H    8.588009    2.283882   -1.486383
 H    7.498051    3.645171   -1.299841
 H    7.413635    3.404261    1.066584
 H    8.528805    1.689577    2.267676
 H    9.292034    0.520890   -0.459878
 H    9.833687   -0.039525    1.117178
 H    8.282933   -1.644907   -0.025990
 H    7.690086   -1.142694    1.552975
 H   -2.864236    3.596686    0.930861
 H    1.552106    2.861891   -0.189845
 H    1.977764    0.540071    0.585254
 H    0.066255   -0.823763    1.475988
 H   -4.381112   -1.259471    3.102535
 H   -4.170559   -2.068753    1.562639
 H   -3.113990   -3.110883    4.261130
 H   -2.894813   -3.929183    2.717404
 H   -4.527215   -3.752431    3.391675
 H   -3.339699    0.077593    1.098097
 H   -0.737876    3.784704   -0.110691
 H   -6.431492   -0.826595   -1.731370
 H   -4.638964   -5.092639   -0.997997
 H    4.258913   -3.362785   -0.034739
 H    6.048530    0.336283    0.572698
 H   -2.785292   -0.606948   -1.397370
