35 
5ld8_ligand_dft.xyz
 N   -4.280818    1.132473    0.254795
 C   -0.498042   -1.328294   -0.463147
 C   -1.039493   -1.395773   -1.773442
 C   -2.241190   -0.796784   -2.081629
 C   -2.915876   -0.085644   -1.077056
 C   -4.123125    0.663599   -0.964008
 C   -2.352347   -0.021371    0.213059
 O    1.626760   -0.824377    1.865603
 S    2.031472   -1.223441    0.528076
 O    3.151583   -2.124530    0.312772
 C    2.284847    0.276034   -0.430583
 C    3.395406    1.134007    0.172816
 C    3.693744    2.378300   -0.670710
 C    2.518986    3.350128   -0.784900
 N    0.734353   -1.984709   -0.214579
 C   -1.147739   -0.651824    0.554361
 N   -3.205547    0.720692    0.968833
 C   -3.086344    1.040307    2.371020
 H   -0.490057   -1.934027   -2.541129
 H   -2.647087   -0.866440   -3.086054
 H   -4.865948    0.872679   -1.721449
 H    1.321695    0.794429   -0.443728
 H    2.528472   -0.046359   -1.448078
 H    4.302027    0.525623    0.262164
 H    3.102669    1.429465    1.186481
 H    4.018775    2.070073   -1.673080
 H    4.547036    2.895577   -0.217100
 H    1.678181    2.915165   -1.336284
 H    2.153744    3.641152    0.206745
 H    2.817245    4.261151   -1.312788
 H    1.062077   -2.607476   -0.943497
 H   -0.736906   -0.627052    1.556619
 H   -3.896313    1.725470    2.619129
 H   -3.169894    0.138431    2.986345
 H   -2.124883    1.523155    2.571453
