75 
5lgo_ligand_xtb.xyz
 C   -1.275379   -2.847921    1.092865
 C   -0.506220   -3.711068    0.087121
 C   -0.309771   -2.799455   -1.134837
 C   -5.150101    1.738598   -0.138923
 C   -4.188787    0.955606    0.479830
 C   -3.880127   -0.311077   -0.011815
 C   -4.556737   -0.802660   -1.119926
 C   -2.970175   -1.146018    0.832168
 C   -4.884851    3.549249    1.427729
 C   -6.845116    2.105449   -1.969100
 C    0.070230   -1.299620    4.306016
 C    2.118463   -2.812742   -1.205748
 C    2.169580    0.122576   -1.156739
 C    1.046223   -0.733586   -1.737545
 C    3.424450   -0.677822   -0.998530
 C    3.402259   -2.053391   -0.992520
 C    5.627683   -2.153778   -0.677627
 C   -1.643376   -2.036672   -1.145185
 N   -2.028991   -1.924917    0.247364
 C   -0.344835   -2.049423    2.026625
 N   -0.685543   -2.006675    3.296936
 O    0.665444   -1.492872    1.572566
 C   -5.518123   -0.021140   -1.738866
 C   -5.823014    1.246568   -1.271782
 O   -3.089697   -1.141756    2.044427
 O   -5.534115    2.979750    0.297379
 N   -7.818386    2.664375   -0.983781
 N    0.923018   -1.980514   -0.949514
 N    4.492310   -2.801225   -0.827742
 N    5.782017   -0.843295   -0.677839
 C    4.702362   -0.089844   -0.832110
 O    4.796601    1.223560   -0.846677
 C    6.113746    1.779717   -0.716929
 C    6.005211    3.297080   -0.801338
 C    5.318759    3.878363    0.413150
 C    6.115229    4.132081    1.657855
 C    5.620744    5.283309    0.836671
 H   -1.970508   -3.437244    1.699089
 H    0.423553   -4.081039    0.511932
 H   -1.111132   -4.571861   -0.196060
 H   -0.195713   -3.367064   -2.062256
 H   -3.680021    1.293323    1.367862
 H   -4.382649   -1.801882   -1.480965
 H   -3.815646    3.665264    1.247466
 H   -5.334527    4.531267    1.559718
 H   -5.051804    2.946101    2.322174
 H   -6.345621    2.949257   -2.453273
 H   -7.374141    1.529431   -2.729017
 H   -0.490451   -0.434531    4.659945
 H    0.265097   -1.963853    5.146695
 H    1.013208   -0.970955    3.874451
 H    2.094159   -3.172779   -2.240528
 H    2.141303   -3.686138   -0.554374
 H    2.360574    0.977878   -1.806654
 H    1.873325    0.515763   -0.179486
 H    1.253879   -0.990773   -2.779502
 H    0.117933   -0.166376   -1.691443
 H    6.519568   -2.747901   -0.541553
 H   -2.358791   -2.659030   -1.695866
 H   -1.618675   -1.057171   -1.622145
 H   -1.585827   -2.369692    3.580096
 H   -6.042790   -0.409169   -2.597836
 H   -8.425142    3.376257   -1.403903
 H   -8.402000    1.924497   -0.577707
 H   -7.219014    3.083481   -0.233636
 H    0.922140   -1.698994    0.113772
 H    6.742552    1.377180   -1.516741
 H    6.534471    1.467651    0.243573
 H    7.013298    3.703420   -0.882216
 H    5.455633    3.563431   -1.707161
 H    4.300305    3.530497    0.540046
 H    5.654503    3.948199    2.616179
 H    7.171860    3.914477    1.637641
 H    6.341671    5.841818    0.260657
 H    4.818614    5.889289    1.228437
