61 
5lgu_ligand_ani.xyz
 N   -0.041045    1.891660   -0.708416
 C    0.499894    0.790113   -1.315547
 O   -1.827796   -3.232093    2.015667
 C   -2.133338    2.131093   -1.917614
 C   -4.080225    3.082813   -0.860695
 C   -3.346715    3.229007    0.312904
 C   -2.011773    2.843188    0.398618
 C   -1.297996    3.069400    1.723866
 C   -0.815316    0.772213    2.263857
 O   -0.123379    0.054242   -2.081815
 C    1.900862    0.462060   -0.959553
 C    2.417637   -0.815634   -0.822622
 C    3.741465   -0.671711   -0.347091
 C    3.996254    0.683655   -0.224659
 C    5.306612    1.005163    0.242684
 C    6.014923   -0.133486    0.470235
 S    5.142601   -1.601352    0.128453
 N    2.874160    1.390070   -0.605216
 C    2.887372    2.822976   -0.815310
 C   -1.405672    2.269587   -0.733966
 C   -3.460640    2.535831   -1.977408
 O   -0.381559    2.064709    2.150372
 C   -2.146224    0.398999    2.442567
 C   -2.491226   -0.948039    2.457020
 C   -1.517602   -1.917280    2.243730
 C   -0.176581   -1.548349    2.193764
 C    0.175130   -0.210689    2.201231
 C   -2.712158   -3.455022    0.918146
 C   -2.321620   -2.681165   -0.336522
 C   -0.908955   -2.985585   -0.843346
 N   -0.888044   -2.499059   -2.252036
 C   -2.310723   -2.368353   -2.708073
 C   -3.166447   -2.958497   -1.576092
 H    0.475398    2.234981    0.088382
 H   -1.642981    1.712489   -2.787929
 H   -5.120665    3.393227   -0.902099
 H   -3.823146    3.656841    1.193844
 H   -0.684506    3.977428    1.696676
 H   -2.049297    3.226882    2.508907
 H    1.876258   -1.722075   -1.055937
 H    5.692830    2.005397    0.407376
 H    7.034872   -0.207704    0.828492
 H    3.904526    3.131647   -1.073455
 H    2.227558    3.096688   -1.642844
 H    2.585040    3.372535    0.085410
 H   -4.012689    2.416816   -2.906852
 H   -2.925821    1.146375    2.541108
 H   -3.531490   -1.238121    2.590424
 H    0.569863   -2.332431    2.090827
 H    1.216847    0.093076    2.136294
 H   -2.668326   -4.534733    0.736963
 H   -3.741121   -3.205046    1.213148
 H   -2.375110   -1.605184   -0.105357
 H   -0.715597   -4.062204   -0.803882
 H   -0.137139   -2.482367   -0.264833
 H   -0.413127   -1.574572   -2.303078
 H   -0.361806   -3.141091   -2.865280
 H   -2.523435   -1.304419   -2.849700
 H   -2.456213   -2.872460   -3.664878
 H   -3.295232   -4.041513   -1.711430
 H   -4.162353   -2.506115   -1.530408
