61 
5lgu_ligand_xtb.xyz
 N   -0.593901    1.642120   -0.880458
 C    0.143209    0.560502   -1.204791
 O   -0.776056   -2.902628    2.465413
 C   -2.674295    1.241579   -2.073989
 C   -4.722633    2.192143   -1.277778
 C   -4.042980    2.739937   -0.205694
 C   -2.675249    2.554461   -0.043729
 C   -2.010129    3.202137    1.154253
 C   -0.947682    1.224948    1.996887
 O   -0.379990   -0.449491   -1.721610
 C    1.561884    0.603861   -0.909852
 C    2.396708   -0.515548   -0.976315
 C    3.657642   -0.104682   -0.565086
 C    3.579756    1.265885   -0.268851
 C    4.811188    1.814510    0.151882
 C    5.778079    0.860257    0.168630
 S    5.254362   -0.717678   -0.317175
 N    2.309877    1.691367   -0.479919
 C    1.942398    3.081517   -0.371611
 C   -1.986375    1.797536   -1.000203
 C   -4.035065    1.435171   -2.210752
 O   -0.853629    2.550312    1.653705
 C   -2.130883    0.501613    2.035006
 C   -2.098446   -0.867878    2.228548
 C   -0.889962   -1.531953    2.391615
 C    0.287020   -0.788648    2.452758
 C    0.258089    0.574804    2.258548
 C   -1.599707   -3.649667    1.594705
 C   -1.392967   -3.188895    0.150108
 C    0.053254   -3.336801   -0.313850
 N   -0.067153   -3.008864   -1.749557
 C   -1.375260   -3.560271   -2.215774
 C   -2.135575   -3.955565   -0.942012
 H   -0.162827    2.317898   -0.267128
 H   -2.128617    0.670598   -2.806612
 H   -5.783415    2.355292   -1.382026
 H   -4.580501    3.326528    0.524751
 H   -1.654519    4.204090    0.883500
 H   -2.749459    3.320011    1.955753
 H    2.118126   -1.497563   -1.295543
 H    4.984347    2.836924    0.431899
 H    6.805384    0.987587    0.447833
 H    2.859446    3.668302   -0.337404
 H    1.370772    3.405962   -1.242792
 H    1.384355    3.284637    0.548185
 H   -4.555137    1.004632   -3.052087
 H   -3.085312    0.981639    1.896434
 H   -3.029684   -1.412112    2.237623
 H    1.219429   -1.297946    2.637702
 H    1.170081    1.150039    2.287745
 H   -1.280376   -4.685905    1.728631
 H   -2.658846   -3.575891    1.867538
 H   -1.664531   -2.129533    0.087551
 H    0.397015   -4.364451   -0.177099
 H    0.734809   -2.654576    0.192240
 H   -0.097930   -1.916519   -1.807427
 H    0.713276   -3.350485   -2.309489
 H   -1.901289   -2.782358   -2.767827
 H   -1.217356   -4.414478   -2.873025
 H   -2.067346   -5.028274   -0.761567
 H   -3.186160   -3.684846   -0.999010
