61 
5lgu_ligand_dft.xyz
 N   -0.519246    1.674350   -0.970237
 C    0.186259    0.590221   -1.384257
 O   -0.863270   -2.890965    2.477894
 C   -2.683937    1.336820   -2.067697
 C   -4.689535    2.233183   -1.075173
 C   -3.929415    2.739084   -0.028247
 C   -2.546805    2.563206    0.025978
 C   -1.803165    3.227561    1.175815
 C   -0.772209    1.231225    2.027671
 O   -0.355413   -0.358684   -1.981284
 C    1.618876    0.565003   -1.078049
 C    2.389373   -0.591018   -1.101036
 C    3.645866   -0.252649   -0.578760
 C    3.622045    1.105128   -0.270791
 C    4.855446    1.616085    0.235543
 C    5.776699    0.617244    0.303877
 S    5.201546   -0.937815   -0.238422
 N    2.390245    1.611658   -0.572503
 C    2.094343    3.036961   -0.526595
 C   -1.925709    1.841504   -1.009365
 C   -4.058867    1.532380   -2.096645
 O   -0.645048    2.545083    1.648602
 C   -1.989352    0.611778    2.295550
 C   -2.029092   -0.763286    2.507655
 C   -0.861339   -1.515451    2.437846
 C    0.366293   -0.876482    2.271693
 C    0.411558    0.495534    2.075301
 C   -1.776600   -3.521091    1.592825
 C   -1.596505   -3.037677    0.156812
 C   -0.166294   -3.191894   -0.346306
 N   -0.314200   -2.996420   -1.832255
 C   -1.741693   -3.347267   -2.216128
 C   -2.400262   -3.790653   -0.907130
 H   -0.070982    2.228571   -0.253979
 H   -2.188220    0.806952   -2.869467
 H   -5.762907    2.389318   -1.093279
 H   -4.420306    3.287520    0.772173
 H   -1.417586    4.204397    0.867763
 H   -2.499183    3.402960    2.004563
 H    2.062668   -1.554151   -1.460485
 H    5.050727    2.636006    0.540883
 H    6.794341    0.700319    0.661521
 H    3.037784    3.583474   -0.555608
 H    1.508481    3.330881   -1.399328
 H    1.564736    3.307611    0.393626
 H   -4.634965    1.143073   -2.930033
 H   -2.916320    1.171489    2.307239
 H   -2.984113   -1.244886    2.690188
 H    1.278148   -1.465451    2.266947
 H    1.360145    0.996116    1.907911
 H   -1.560476   -4.590497    1.674600
 H   -2.815935   -3.367191    1.909009
 H   -1.854960   -1.972940    0.100144
 H    0.225070   -4.195575   -0.160051
 H    0.526236   -2.444622    0.042408
 H   -0.155579   -1.971528   -2.028549
 H    0.368478   -3.539390   -2.360183
 H   -2.188387   -2.433869   -2.611086
 H   -1.729452   -4.110488   -2.993851
 H   -2.302277   -4.873797   -0.770942
 H   -3.463521   -3.542556   -0.896420
