74 
5lj0_ligand_ani.xyz
 C   -1.921628   -1.881837   -1.757380
 C   -4.352276    1.619035    0.144165
 C   -5.336699    0.683852    0.861421
 C   -3.167706   -1.546396    2.808729
 O   -3.113654   -2.077724    1.508399
 C   -1.816454   -2.506138    1.099810
 C   -2.104508   -3.547917    0.021450
 N   -2.846783   -2.806113   -1.037191
 C   -1.643921   -0.758541   -0.764002
 O   -2.941468   -0.220563   -0.508466
 C   -2.938455    1.045034    0.118154
 C   -6.731747    1.305434    0.940707
 C   -7.219498    1.679820   -0.446421
 F   -8.446933    2.281194   -0.360155
 F   -7.405332    0.522316   -1.169844
 C   -6.261864    2.575042   -1.209785
 C   -4.866688    1.950654   -1.264274
 C   -0.996746   -1.325090    0.530609
 N    0.369702   -1.758442    0.250193
 C    1.396725   -0.827498    0.252977
 N    1.120792    0.451461    0.450802
 C    2.153863    1.308224    0.501949
 C    3.481695    0.975589    0.349716
 C    4.497482    2.047672    0.379814
 C    4.468699    3.001374    1.401178
 N    5.324423    4.013923    1.496955
 C    6.243642    4.137253    0.539747
 C    6.363673    3.275767   -0.550276
 C    7.416349    3.489614   -1.606810
 C    5.468386    2.213455   -0.610463
 C    3.795332   -0.402560    0.140453
 C    5.113525   -0.981765    0.067146
 C    5.333006   -2.288500   -0.203501
 C    6.682377   -2.919414   -0.286217
 C    4.197555   -3.181510   -0.478618
 O    4.304774   -4.349793   -0.818106
 N    2.950875   -2.599485   -0.323929
 C    2.721724   -1.276767    0.014560
 H   -2.388796   -1.489196   -2.660727
 H   -0.997319   -2.401046   -2.026518
 H   -4.292365    2.559423    0.713327
 H   -4.961380    0.430722    1.861915
 H   -5.399330   -0.260789    0.308332
 H   -4.222226   -1.433311    3.079464
 H   -2.697726   -2.225731    3.536802
 H   -2.676011   -0.564036    2.880290
 H   -1.291452   -2.950317    1.958800
 H   -1.180416   -3.968932   -0.387029
 H   -2.712535   -4.356017    0.427342
 H   -3.389180   -3.412787   -1.660683
 H   -3.481368   -2.169632   -0.501916
 H   -0.986631    0.009737   -1.187453
 H   -2.557993    0.959386    1.148895
 H   -2.264263    1.729111   -0.424935
 H   -6.716048    2.219559    1.546205
 H   -7.459098    0.619998    1.387801
 H   -6.670463    2.742954   -2.211583
 H   -6.231081    3.542665   -0.694456
 H   -4.168587    2.629375   -1.768946
 H   -4.903780    1.030329   -1.857197
 H   -0.973409   -0.522437    1.273271
 H    0.616050   -2.642615    0.679623
 H    1.881262    2.350916    0.656551
 H    3.733520    2.922639    2.201582
 H    6.930460    4.976092    0.647395
 H    7.091631    4.220782   -2.355971
 H    8.346216    3.862433   -1.165466
 H    7.640393    2.555200   -2.129081
 H    5.519807    1.502907   -1.435316
 H    5.969623   -0.335314    0.245808
 H    6.760219   -3.756862    0.415056
 H    7.477698   -2.200140   -0.066588
 H    6.850190   -3.338164   -1.284340
 H    2.189423   -3.176561   -0.661695
