74 
5lj1_ligand_xtb.xyz
 C   -1.829958   -1.322323   -1.823656
 C   -4.261687    1.918599    0.303004
 C   -5.156025    0.985572    1.127193
 C   -3.292114   -1.802689    2.719212
 O   -3.245896   -2.098810    1.337639
 C   -1.995722   -2.515950    0.843116
 C   -2.314161   -3.273031   -0.452815
 N   -2.869786   -2.291774   -1.407490
 C   -1.572144   -0.454700   -0.589383
 O   -2.820978    0.115045   -0.284970
 C   -2.820346    1.397583    0.325966
 C   -6.631861    1.356013    1.019931
 C   -7.043335    1.394901   -0.443669
 F   -8.370437    1.665464   -0.560525
 F   -6.895221    0.140853   -0.994342
 C   -6.219592    2.395376   -1.239837
 C   -4.744640    2.019115   -1.148396
 C   -1.030440   -1.342927    0.559887
 N    0.272278   -1.860992    0.178656
 C    1.342136   -0.946607    0.223429
 N    1.048982    0.326335    0.396200
 C    2.031290    1.222520    0.422090
 C    3.371687    0.907521    0.293905
 C    4.379486    1.971363    0.345659
 C    4.396779    2.877054    1.406452
 N    5.260795    3.867614    1.495383
 C    6.157427    4.015427    0.539803
 C    6.249065    3.177757   -0.572082
 C    7.293459    3.398903   -1.617321
 C    5.330044    2.142100   -0.659270
 C    3.708619   -0.453428    0.115271
 C    5.050809   -0.943443    0.036290
 C    5.333257   -2.250577   -0.157185
 C    6.717222   -2.792775   -0.233264
 C    4.254412   -3.228016   -0.311607
 O    4.391920   -4.412096   -0.537204
 N    2.977779   -2.709573   -0.168804
 C    2.666807   -1.393929    0.048921
 H   -2.210053   -0.702351   -2.636047
 H   -0.925830   -1.842659   -2.138174
 H   -4.269169    2.915252    0.753361
 H   -4.852299    1.024931    2.174003
 H   -5.019652   -0.037010    0.772813
 H   -4.338937   -1.620799    2.948411
 H   -2.930715   -2.648431    3.311934
 H   -2.706789   -0.913161    2.964894
 H   -1.519922   -3.207212    1.557710
 H   -1.420690   -3.732113   -0.876828
 H   -3.061484   -4.038721   -0.237704
 H   -3.318384   -2.749560   -2.204794
 H   -3.567573   -1.728308   -0.881492
 H   -0.817723    0.312709   -0.798812
 H   -2.454487    1.329691    1.357229
 H   -2.158220    2.070100   -0.233000
 H   -6.824306    2.339501    1.449382
 H   -7.249254    0.624410    1.543560
 H   -6.553412    2.386210   -2.278635
 H   -6.401232    3.388233   -0.828217
 H   -4.148078    2.760064   -1.682081
 H   -4.601641    1.052293   -1.633842
 H   -0.954327   -0.709025    1.454928
 H    0.500424   -2.715368    0.675200
 H    1.711832    2.246998    0.549459
 H    3.692040    2.787007    2.222475
 H    6.837255    4.848181    0.660556
 H    7.132067    2.750962   -2.475319
 H    7.284268    4.435061   -1.949679
 H    8.281805    3.193361   -1.207475
 H    5.333024    1.482666   -1.517238
 H    5.855337   -0.233003    0.156554
 H    6.864307   -3.534102    0.551254
 H    7.458499   -2.005597   -0.133221
 H    6.855372   -3.311352   -1.181156
 H    2.235326   -3.386548   -0.287386
