37 
5ljt_ligand_ani.xyz
 C    0.483440   -1.525853   -0.074100
 O   -0.105960   -0.244684    0.028800
 C   -1.464323   -0.171721    0.058906
 C   -1.998851    1.120365    0.125388
 C   -3.371726    1.294393    0.162715
 C   -4.207770    0.179758    0.127442
 C   -3.683376   -1.103595    0.071877
 C   -2.303447   -1.284818    0.033247
 C    1.956813   -1.339823   -0.119517
 C    2.684680   -0.189656    0.000874
 N    3.973903   -0.604411   -0.103206
 N    4.025622   -1.937056   -0.271996
 N    2.812319   -2.383063   -0.287061
 C    5.170127    0.166801   -0.036895
 C    6.336167   -0.407574    0.463608
 C    7.488148    0.365191    0.551341
 C    7.481971    1.694648    0.134916
 C    6.314709    2.252607   -0.376739
 C    5.154071    1.491492   -0.464455
 S   -5.964158    0.408206    0.145788
 O   -6.237739    1.700573    0.753903
 O   -6.565705   -0.823144    0.632589
 N   -6.359584    0.540392   -1.473538
 H    0.144904   -2.043142   -0.980903
 H    0.210924   -2.150144    0.787311
 H   -1.321044    1.968099    0.148804
 H   -3.803313    2.288944    0.229222
 H   -4.350173   -1.961154    0.067604
 H   -1.898694   -2.289941   -0.013230
 H    2.391239    0.834951    0.176996
 H    6.327488   -1.448909    0.773248
 H    8.398693   -0.078697    0.945243
 H    8.386770    2.291990    0.206718
 H    6.300719    3.287567   -0.708491
 H    4.246492    1.918403   -0.881545
 H   -6.774156    1.447935   -1.657676
 H   -6.967705   -0.223503   -1.749277
