35 
5ll4_ligand_dft.xyz
 O   -1.276248   -0.304020    1.548503
 C   -0.760883   -0.463395    0.465980
 C    0.711704   -0.271464    0.263027
 C    1.466586    0.155714    1.360097
 C    2.833579    0.351756    1.238264
 C    1.340663   -0.498351   -0.964188
 C    2.711640   -0.309322   -1.095912
 C    3.442356    0.107600    0.009906
 S    5.205513    0.342893   -0.152330
 O    5.497709    0.466376   -1.570935
 N    5.830589   -1.119650    0.365999
 O    5.602475    1.347553    0.819684
 C   -1.605693   -0.876735   -0.747593
 N   -3.003754   -0.946353   -0.446239
 C   -3.878878    0.119130   -0.344734
 C   -3.727313    1.483329   -0.584477
 C   -4.850602    2.274677   -0.395895
 C   -6.076998    1.723761    0.018581
 C   -6.214312    0.365718    0.259547
 C   -5.094177   -0.449031    0.077018
 N   -4.954473   -1.819643    0.248619
 C   -3.713226   -2.056394   -0.056359
 H    0.958327    0.335043    2.301372
 H    3.423770    0.703843    2.077348
 H    0.775302   -0.821038   -1.832621
 H    3.209379   -0.466435   -2.046398
 H    6.315449   -1.592294   -0.390065
 H    6.423413   -0.986164    1.179041
 H   -1.266738   -1.856249   -1.104716
 H   -1.445747   -0.168593   -1.569404
 H   -2.779379    1.914863   -0.892342
 H   -4.780486    3.344506   -0.567226
 H   -6.930183    2.381057    0.155353
 H   -7.155687   -0.065370    0.583574
 H   -3.240316   -3.031182   -0.032871
