35 
5ll5_ligand_xtb.xyz
 O   -1.289031   -0.066024    1.516693
 C   -0.765487   -0.367807    0.474106
 C    0.697115   -0.209373    0.247636
 C    1.350296   -0.638923   -0.908782
 C    2.717547   -0.464282   -1.032423
 C    1.432070    0.402281    1.266915
 C    2.796774    0.578755    1.139561
 C    3.422262    0.138625   -0.009702
 S    5.192680    0.312336   -0.165005
 O    5.549582    0.291918   -1.551746
 N    5.685307   -1.142032    0.520843
 O    5.639825    1.383380    0.673197
 C   -1.584925   -0.937266   -0.689206
 N   -2.977595   -0.986042   -0.366876
 C   -3.851012    0.075583   -0.341758
 C   -3.714245    1.413069   -0.675115
 C   -4.835021    2.207564   -0.541181
 C   -6.051170    1.688932   -0.091786
 C   -6.193514    0.358774    0.242051
 C   -5.077511   -0.460367    0.116372
 N   -4.921325   -1.801388    0.369323
 C   -3.685987   -2.061112    0.088243
 H    0.807212   -1.111337   -1.711711
 H    3.251538   -0.776124   -1.915695
 H    0.905060    0.731277    2.150082
 H    3.384775    1.059596    1.904593
 H    6.205940   -1.709317   -0.127938
 H    6.192030   -1.003677    1.379913
 H   -1.234627   -1.950429   -0.909084
 H   -1.434221   -0.308055   -1.573497
 H   -2.774043    1.822732   -1.015368
 H   -4.770763    3.257038   -0.787727
 H   -6.898193    2.353053   -0.003421
 H   -7.130452   -0.044040    0.591045
 H   -3.237995   -3.032763    0.181124
