35 
5ll9_ligand_dft.xyz
Cl   -3.480723    2.296750   -0.768145
 C   -2.540412    0.884314   -0.406082
 C   -3.121999   -0.285149    0.102753
 S   -4.893986   -0.354131    0.401529
 O   -5.194061    0.566726    1.481785
 N   -5.103115   -1.902920    0.996269
 O   -5.560472   -0.293442   -0.885776
 C   -1.173456    0.933341   -0.634276
 C   -0.369891   -0.173526   -0.359360
 C   -0.949577   -1.336895    0.145569
 C   -2.319150   -1.388965    0.373608
 C    1.099285   -0.042336   -0.633751
 O    1.565358    0.969530   -1.102585
 C    1.997843   -1.241986   -0.304484
 N    3.385530   -0.964811   -0.519315
 C    4.222588   -0.253753    0.320852
 C    4.036557    0.289374    1.590412
 C    5.127249    0.933805    2.155104
 C    6.355180    1.033269    1.475781
 C    6.526644    0.493902    0.210531
 C    5.439660   -0.158096   -0.376814
 N    5.337337   -0.774907   -1.616578
 C    4.115859   -1.216956   -1.655958
 H   -5.459559   -1.867968    1.946052
 H   -5.705058   -2.436986    0.377565
 H   -0.714925    1.833389   -1.028661
 H   -0.352389   -2.215173    0.366931
 H   -2.780582   -2.286950    0.765475
 H    1.700301   -2.093602   -0.927659
 H    1.844639   -1.544973    0.738260
 H    3.086764    0.226583    2.113487
 H    5.029396    1.376256    3.141724
 H    7.181900    1.548456    1.955069
 H    7.469087    0.570870   -0.321262
 H    3.673345   -1.754641   -2.486305
