35 
5lla_ligand_ani.xyz
Cl    3.471035    2.149589    1.071307
 C    2.532943    0.799318    0.538821
 C    3.108998   -0.295324   -0.125690
 S    4.865312   -0.297107   -0.454641
 O    5.147917    0.777099   -1.390973
 N    5.113635   -1.734645   -1.273440
 O    5.560060   -0.407192    0.816547
 C    1.168130    0.822078    0.788849
 C    0.360357   -0.241935    0.382445
 C    0.934531   -1.335308   -0.263600
 C    2.297343   -1.360804   -0.515302
 C   -1.104954   -0.155560    0.661171
 O   -1.572592    0.772689    1.281469
 C   -1.989236   -1.290078    0.131368
 N   -3.399314   -1.070436    0.332030
 C   -4.176965   -0.114037   -0.293491
 C   -3.864939    0.895447   -1.203340
 C   -4.916518    1.685149   -1.645452
 C   -6.231432    1.473807   -1.190917
 C   -6.530060    0.472601   -0.282539
 C   -5.482835   -0.335854    0.175976
 N   -5.498782   -1.398789    1.071207
 C   -4.258992   -1.791559    1.123020
 H    5.472566   -1.540057   -2.202619
 H    5.747785   -2.323960   -0.743766
 H    0.724861    1.670447    1.300670
 H    0.325621   -2.177402   -0.575103
 H    2.735978   -2.212462   -1.022158
 H   -1.712017   -2.214766    0.644352
 H   -1.779665   -1.428590   -0.935822
 H   -2.846368    1.066828   -1.543386
 H   -4.723530    2.483046   -2.356585
 H   -7.030833    2.111581   -1.560017
 H   -7.543427    0.306881    0.071413
 H   -3.893657   -2.612164    1.732230
