41 
5llc_ligand_ani.xyz
 O    3.463496    0.537878    1.070528
 S    2.833581   -0.755300    0.782507
 O    3.194001   -1.928014    1.563871
 C    1.063436   -0.560575    0.833719
 C    0.301228   -1.635839    0.403494
 F    0.869474   -2.802342    0.079457
 C   -1.072398   -1.537690    0.239832
 F   -1.746806   -2.580275   -0.243288
 C    0.415131    0.623806    1.279299
 N    1.115948    1.643152    1.824284
 C    0.578343    2.847791    2.406153
 C   -0.988678    0.669328    1.120674
 F   -1.632311    1.767389    1.543459
 C   -1.723641   -0.356637    0.552449
 S   -3.454027   -0.269316    0.201701
 O   -4.092656   -1.360727    0.912197
 N   -3.448854   -0.615135   -1.436757
 O   -3.917686    1.097554    0.327370
 C    3.206460   -1.148711   -0.936211
 C    3.172434    0.057651   -1.880700
 C    1.820534    0.720242   -2.023052
 C    0.730907    0.021942   -2.547523
 C   -0.535078    0.590606   -2.582851
 C   -0.728287    1.889018   -2.119958
 C    0.357688    2.610114   -1.633143
 C    1.621354    2.031874   -1.589647
 H    2.120568    1.522701    1.801381
 H    0.003639    3.431126    1.680229
 H   -0.068188    2.638567    3.264723
 H    1.425921    3.446631    2.746329
 H   -3.680475   -1.588484   -1.604714
 H   -4.082765    0.019570   -1.911765
 H    2.533031   -1.955092   -1.234378
 H    4.218598   -1.561413   -0.882550
 H    3.517732   -0.299722   -2.859916
 H    3.906483    0.787850   -1.528975
 H    0.876058   -0.989445   -2.926156
 H   -1.382238    0.012657   -2.946133
 H   -1.723050    2.333506   -2.127256
 H    0.216757    3.628867   -1.272450
 H    2.468345    2.596410   -1.201974
