43 
5lle_ligand_ani.xyz
 F    2.651611   -2.341430   -0.026386
 C    2.045047   -1.186484   -0.284344
 C    2.716643    0.018596   -0.081480
 S    4.381105   -0.111362    0.529266
 O    4.298767   -0.336289    1.958805
 N    5.077832    1.367620    0.330174
 O    5.077221   -1.015990   -0.358777
 C    2.002822    1.189278   -0.330824
 F    2.530197    2.405889   -0.126134
 C    0.695352    1.152384   -0.795502
 F    0.076334    2.317131   -1.033627
 C    0.740265   -1.211449   -0.743372
 F    0.125885   -2.394264   -0.925254
 C    0.018039   -0.045104   -1.012812
 N   -1.287820   -0.099834   -1.515933
 C   -2.420919   -0.050779   -0.560813
 C   -2.389244   -1.192298    0.471331
 C   -3.697450   -0.181869   -1.400466
 C   -2.459385    1.292229    0.181204
 C   -3.704610    1.369385    1.075150
 C   -4.969052    1.231767    0.214995
 C   -4.948276   -0.117268   -0.517679
 C   -3.659152    0.226372    2.100608
 C   -3.631010   -1.124427    1.369233
 C   -4.895879   -1.259530    0.507492
 H    4.650635    2.096799    0.888640
 H    5.210177    1.625699   -0.640718
 H   -1.376860   -0.946006   -2.071073
 H   -1.477583   -1.113330    1.077786
 H   -2.348075   -2.158537   -0.046993
 H   -3.664833   -1.135172   -1.948495
 H   -3.702668    0.621388   -2.148497
 H   -2.459026    2.104673   -0.553349
 H   -1.560106    1.402871    0.800121
 H   -3.715589    2.334822    1.598211
 H   -5.015849    2.050458   -0.515275
 H   -5.864830    1.305487    0.846539
 H   -5.846643   -0.217315   -1.140823
 H   -4.535312    0.278037    2.761384
 H   -2.768080    0.326726    2.734295
 H   -3.593580   -1.940382    2.102740
 H   -4.893135   -2.226715   -0.011958
 H   -5.789690   -1.234729    1.145584
