27 
5llg_ligand_ani.xyz
 O   -3.662022   -0.646816    1.551762
 S   -3.416591   -0.071423    0.238626
 O   -4.033595    1.185208   -0.159358
 N   -3.839731   -1.253221   -0.868470
 C   -1.671115    0.097768   -0.024449
 C   -0.859728   -1.017372   -0.204073
 C    0.512431   -0.849969   -0.337749
 C    1.074328    0.429398   -0.293439
 C    0.242254    1.543119   -0.126700
 C   -1.127753    1.378993    0.009097
 S    2.805161    0.765995   -0.466912
 C    3.560365   -0.873441   -0.273403
 C    5.077579   -0.760718   -0.123249
 C    5.514238   -0.025764    1.140393
 H   -4.410112   -1.950733   -0.399737
 H   -4.328882   -0.843645   -1.658007
 H   -1.290701   -2.013236   -0.247329
 H    1.130686   -1.729597   -0.481792
 H    0.674366    2.539304   -0.100782
 H   -1.789041    2.230027    0.137362
 H    3.317926   -1.487235   -1.146986
 H    3.132626   -1.353623    0.614184
 H    5.498431   -0.272218   -1.011008
 H    5.481022   -1.781965   -0.111078
 H    5.210621    1.025257    1.112702
 H    5.061662   -0.477269    2.030544
 H    6.601721   -0.064903    1.256007
