70 
5lli_ligand_dft.xyz
 C    5.813721   -3.561816   -0.382144
 C    6.553720   -2.277234   -0.359266
 C    5.167006   -2.343865    0.274155
 C    5.077401   -2.325858    1.712590
 N    4.975664   -2.297195    2.867095
 C    4.048900   -1.694459   -0.514697
 O    4.075945   -1.710051   -1.737377
 N    3.054646   -1.139667    0.213598
 C    1.934904   -0.459685   -0.408010
 C    0.626285   -1.315172   -0.366103
 C    0.882466   -2.614382   -1.143281
 C   -0.515715   -0.546284   -1.041408
 C    0.229843   -1.659984    1.074753
 C    1.793679    0.875352    0.323384
 O    1.893872    0.903043    1.555114
 N    1.566990    1.993836   -0.395975
 C    1.595855    2.120499   -1.855544
 C    1.293739    3.600692   -2.095554
 O    1.893178    3.982049   -3.310758
 C    1.865020    4.282882   -0.847545
 C    1.517863    3.310301    0.272181
 C    0.101864    3.554750    0.832941
 O   -0.690245    4.311711    0.284762
 N   -0.169630    2.855433    1.958165
 C   -1.516585    2.789740    2.504356
 C   -2.343945    1.701086    1.854895
 C   -2.474010    0.448400    2.452670
 C   -3.176229   -0.572580    1.823717
 C   -2.943419    1.916448    0.610873
 C   -3.638175    0.895603   -0.023999
 C   -3.765222   -0.365255    0.572743
 C   -4.474582   -1.452653   -0.121629
 S   -3.795445   -3.051888   -0.218239
 C   -5.172739   -3.549414   -1.136843
 N   -6.055245   -2.627100   -1.355902
 C   -5.674539   -1.430092   -0.785919
 C   -6.598459   -0.256500   -0.916501
 H    6.127086   -4.359536    0.282384
 H    5.352424   -3.862516   -1.316296
 H    6.598815   -1.705015   -1.279418
 H    7.391340   -2.166041    0.320615
 H    3.128564   -1.053719    1.219811
 H    2.207505   -0.310420   -1.455236
 H   -0.041335   -3.201606   -1.192828
 H    1.218650   -2.412452   -2.165713
 H    1.645031   -3.227609   -0.653356
 H   -0.726917    0.406376   -0.542970
 H   -1.435051   -1.139043   -1.005791
 H   -0.296592   -0.353722   -2.098291
 H   -0.657848   -2.302457    1.063928
 H   -0.008922   -0.766495    1.656388
 H    1.029197   -2.203641    1.589765
 H    2.591562    1.892024   -2.254022
 H    0.862749    1.469145   -2.331580
 H    0.207586    3.756392   -2.118268
 H    1.561142    4.856245   -3.544346
 H    2.951333    4.364892   -0.958232
 H    1.436932    5.271322   -0.673102
 H    2.242524    3.313059    1.091051
 H    0.503890    2.139795    2.221172
 H   -1.433896    2.617317    3.581370
 H   -1.978771    3.767521    2.351193
 H   -2.018355    0.264259    3.422742
 H   -3.273120   -1.538954    2.310563
 H   -2.833233    2.884547    0.131375
 H   -4.068128    1.065221   -1.006452
 H   -5.268536   -4.569326   -1.490256
 H   -6.506646    0.208816   -1.904683
 H   -7.632923   -0.592622   -0.807083
 H   -6.389810    0.504164   -0.160288
