46 
5llo_ligand_xtb.xyz
 O    0.002745    2.224517    2.157744
 C    0.372076    3.892645    0.528874
 C   -2.916199    0.713133   -0.257992
 F   -4.192987    1.098000   -0.323903
 C   -2.567817   -0.598277    0.019862
 F   -2.218563    2.912266   -0.730646
 F   -0.974315   -2.243674    0.391199
 O    0.273409    3.154107   -2.031288
 S    0.604581    2.613253   -0.748923
 O    1.951891    2.106782   -0.602242
 C    0.837323    3.320962    1.849944
 C   -0.567029    1.282377   -0.384013
 C   -1.898680    1.638360   -0.465359
 C   -0.173740   -0.036770   -0.067876
 C   -1.241753   -0.949273    0.114315
 S   -3.777078   -1.895427    0.356734
 O   -5.089252   -1.463012    0.013539
 N   -3.309482   -3.029589   -0.775213
 O   -3.515918   -2.375066    1.677458
 N    1.123931   -0.343115    0.084003
 C    1.721469   -1.665207    0.150467
 C    1.691601   -2.390192   -1.213058
 C    2.998869   -1.993363   -1.916091
 C    3.915123   -1.649461   -0.780174
 C    5.286200   -1.485984   -0.787505
 C    5.925098   -1.149285    0.397224
 C    5.204381   -0.975947    1.567356
 C    3.826223   -1.136241    1.575796
 C    3.194824   -1.478702    0.397682
 H    0.267017    1.848761    3.004200
 H    0.974650    4.739205    0.213820
 H   -0.679256    4.157154    0.544696
 H    0.776647    4.088942    2.634035
 H    1.880680    2.994789    1.745131
 H   -4.087197   -3.338634   -1.333740
 H   -2.791434   -3.795020   -0.376214
 H    1.765261    0.415219   -0.141300
 H    1.237054   -2.247221    0.937446
 H    0.807650   -2.121750   -1.789110
 H    1.673585   -3.466150   -1.039622
 H    3.392569   -2.793829   -2.542142
 H    2.854398   -1.112425   -2.546606
 H    5.852181   -1.617521   -1.697616
 H    6.997360   -1.021162    0.407154
 H    5.719682   -0.714354    2.479526
 H    3.259924   -1.002908    2.485576
