54 
5lm4_ligand_ani.xyz
 N    2.946083   -4.802141   -0.253367
 C    3.750690    2.118073    0.480943
 O    0.193423   -2.529536   -1.381906
 C    2.463441    0.093890    0.071290
 C    1.611896    0.831949   -0.749382
 C    1.833545    2.180101   -0.977910
 O    1.289604   -0.846496    2.910808
 C    0.463533   -1.259231    2.115907
 C    0.834296   -1.663769    0.752511
 C   -0.105669   -2.146933   -0.093631
 C    1.435892   -2.231727   -1.913295
 N    1.585168   -2.001540   -3.140856
 C    2.566987   -2.279854   -0.903672
 C    2.781852   -3.691822   -0.530963
 C    2.241720   -1.390625    0.322806
 C    3.521501    0.758412    0.683254
 C    2.901370    2.835156   -0.356300
 O    3.022934    4.162538   -0.626510
 C    4.053457    4.867108    0.029855
 C   -1.003219   -1.380849    2.516599
 C   -1.999996   -1.337908    1.349998
 C   -1.533367   -2.325777    0.250237
 C   -2.242643    0.063011    0.806365
 C   -1.280004    1.041470    0.880239
 C   -1.529592    2.358778    0.437257
 C   -2.732268    2.688939   -0.124547
 C   -3.739451    1.700153   -0.277045
 C   -3.501403    0.374399    0.173471
 C   -4.985373    2.020060   -0.880804
 C   -5.955685    1.072227   -1.051213
 C   -5.721940   -0.252366   -0.622801
 C   -4.532421   -0.590547   -0.031437
 H    4.583547    2.599849    0.982472
 H    0.727209    0.360464   -1.179884
 H    1.180449    2.759702   -1.622017
 H    0.677209   -2.064627   -3.606134
 H    3.465304   -1.935338   -1.416233
 H    2.905069   -1.672470    1.143935
 H    4.184625    0.203454    1.346837
 H    3.942328    4.816452    1.121311
 H    3.965268    5.904730   -0.295393
 H    5.043617    4.481160   -0.246980
 H   -1.215993   -0.602439    3.253297
 H   -1.096741   -2.345120    3.032748
 H   -2.957879   -1.693524    1.749094
 H   -2.142986   -2.212668   -0.654776
 H   -1.687748   -3.357401    0.603365
 H   -0.301816    0.816818    1.299033
 H   -0.754386    3.112934    0.555263
 H   -2.936223    3.699999   -0.467579
 H   -5.149630    3.043948   -1.210126
 H   -6.903875    1.329933   -1.515962
 H   -6.494263   -1.005033   -0.758056
 H   -4.382419   -1.621015    0.279825
