31 
5lm6_ligand_dft.xyz
 C   -4.089388    2.042697   -0.002406
 C   -2.796608    2.555675   -0.002194
 C   -1.745743    1.653158   -0.000967
 C   -1.957534    0.277759    0.000044
 C   -3.258620   -0.252760   -0.000111
 C   -4.309041    0.667176   -0.001336
 C   -3.690335   -1.715327    0.001109
 O   -2.771754   -2.664968    0.002074
 O   -4.869100   -1.985784    0.001315
 C   -0.621733   -0.378227    0.000936
 O   -0.388099   -1.586528    0.001855
 N    0.324755    0.612266    0.000374
 C   -0.274989    1.940110   -0.000364
 C    1.732100    0.445169    0.000640
 C    2.555411    1.576348    0.003348
 C    3.940879    1.455737    0.003356
 C    4.539183    0.203234    0.000695
 C    3.699857   -0.908649   -0.001990
 C    2.324804   -0.824467   -0.002168
 F    4.297914   -2.120275   -0.004607
 O    5.887023    0.081592    0.000751
 H   -4.939238    2.717831   -0.003407
 H   -2.618722    3.626994   -0.002961
 H   -5.316778    0.267773   -0.001414
 H   -1.841936   -2.323803    0.002138
 H    0.032493    2.502785    0.888962
 H    0.033855    2.502315   -0.889499
 H    2.132231    2.573475    0.005535
 H    4.572524    2.337173    0.005479
 H    1.732873   -1.727620   -0.004183
 H    6.104184   -0.860588   -0.001328
