31 
5lm6_ligand_ani.xyz
 C   -4.090461    2.026515   -0.247832
 C   -2.794722    2.533071   -0.212506
 C   -1.743322    1.648281   -0.077609
 C   -1.957857    0.273887    0.019262
 C   -3.264611   -0.251280   -0.008905
 C   -4.311633    0.655805   -0.146471
 C   -3.709213   -1.702462    0.088468
 O   -2.805047   -2.656412    0.251718
 O   -4.885941   -1.973860    0.020284
 C   -0.619427   -0.364472    0.125568
 O   -0.377738   -1.563064    0.245251
 N    0.338306    0.627938    0.072909
 C   -0.273587    1.954995   -0.003656
 C    1.741885    0.447865    0.071715
 C    2.579587    1.542066    0.321039
 C    3.962809    1.416113    0.314009
 C    4.546610    0.186217    0.046855
 C    3.697043   -0.887516   -0.202906
 C    2.323581   -0.798440   -0.195934
 F    4.295089   -2.078807   -0.460640
 O    5.893816    0.035502    0.028284
 H   -4.935037    2.700590   -0.354088
 H   -2.618526    3.603072   -0.290615
 H   -5.315243    0.246191   -0.171735
 H   -1.884675   -2.314363    0.280739
 H   -0.038507    2.548217    0.886463
 H    0.077270    2.494578   -0.886124
 H    2.151450    2.518118    0.521224
 H    4.600265    2.272379    0.511451
 H    1.738169   -1.684891   -0.392938
 H    6.080077   -0.891392   -0.179861
