62 
5loh_ligand_xtb.xyz
 O   -0.783207   -1.940668   -1.714688
 C    0.324843   -2.462690   -1.040812
 C   -0.060066   -3.376920    0.140223
 C   -1.095893   -2.715756    1.032717
 C   -2.308347   -2.242295    0.198041
 C   -1.890347   -1.376020   -1.041792
 C   -3.000563   -1.431659   -2.103141
 N   -1.620326   -0.007773   -0.622406
 C   -0.347862    0.520515   -0.447462
 C    0.898819   -0.102003   -0.415336
 C    2.074779    0.641876   -0.153936
 C    1.968977    2.015985    0.074747
 C    0.730142    2.642195    0.033774
 C   -0.430620    1.911348   -0.208494
 C   -1.824396    2.241697   -0.251080
 C   -2.532600    1.042403   -0.495225
 C   -3.920096    1.054174   -0.509710
 C   -4.571904    2.259931   -0.332016
 C   -3.875029    3.447268   -0.130979
 C   -2.498050    3.445781   -0.078537
 C    0.909887    4.107235    0.282636
 N    2.331977    4.204097    0.483317
 C    3.008753    3.031119    0.372582
 O    4.201334    2.887649    0.515026
 C    3.165640   -0.287436   -0.213570
 C    2.613562   -1.550709   -0.519723
 C    3.410154   -2.676410   -0.653151
 C    4.774072   -2.514034   -0.488782
 C    5.329319   -1.271418   -0.188619
 C    4.540252   -0.148422   -0.047787
 N    1.234193   -1.434273   -0.607045
 O   -3.136004   -1.466646    1.038204
 C   -4.276832   -2.125668    1.562273
 N   -0.591611   -1.519105    1.768662
 C    0.226743   -1.797887    2.957313
 H    0.837032   -3.065700   -1.804688
 H    0.841579   -3.637334    0.695091
 H   -0.491260   -4.298150   -0.253166
 H   -1.447237   -3.424397    1.792616
 H   -2.833427   -3.126723   -0.180212
 H   -2.938652   -0.561566   -2.749140
 H   -2.837908   -2.319612   -2.708223
 H   -3.986743   -1.482680   -1.658133
 H   -4.503316    0.160496   -0.637000
 H   -5.650585    2.276969   -0.349425
 H   -4.419602    4.369640   -0.005511
 H   -1.948280    4.356633    0.093908
 H    0.358187    4.447183    1.167935
 H    0.581502    4.704346   -0.576800
 H    2.799808    5.077986    0.654965
 H    2.993177   -3.643345   -0.893184
 H    5.420882   -3.371005   -0.597057
 H    6.398021   -1.189912   -0.069228
 H    4.956227    0.819873    0.180321
 H   -3.996884   -2.965425    2.205112
 H   -4.927721   -2.487005    0.763385
 H   -4.806289   -1.377817    2.147894
 H   -0.051328   -0.903382    1.116905
 H   -1.458305   -1.002089    2.016660
 H   -0.326590   -2.412057    3.665525
 H    0.502707   -0.863079    3.440535
 H    1.138369   -2.318378    2.669965
