54 
5lp6_ligand_ani.xyz
 C   -0.827401   -3.408680    1.358472
 O   -0.751374   -1.991955    1.244184
 C   -1.419802   -1.389409    0.218104
 C   -0.708854   -0.434717   -0.553551
 C    0.758317   -0.212710   -0.351848
 C    1.523886   -1.365240   -0.396439
 C    2.906622   -1.556081   -0.461041
 C    3.958243   -0.682725   -0.364578
 S    5.563288   -1.377142   -0.629394
 C    6.370930   -1.043322    0.956009
 C    3.871092    0.748087   -0.093932
 O    4.883000    1.426133    0.090075
 C    2.597603    1.454430   -0.041664
 C    1.288294    1.104953   -0.189884
 C    0.316233    2.292601   -0.109095
 N   -0.641136    2.074016    0.965788
 C   -1.325015    3.105581    1.529358
 O   -1.169700    4.263441    1.168293
 C   -2.266194    2.706587    2.648448
 C   -0.329084    2.593280   -1.479376
 C   -0.694126    1.356728   -2.312983
 C   -1.417058    0.305304   -1.513726
 C   -2.785894    0.106639   -1.683416
 C   -3.478324   -0.817383   -0.905703
 O   -4.815382   -1.040867   -0.970699
 C   -5.544710   -0.306660   -1.928735
 C   -2.785660   -1.581260    0.049639
 O   -3.468605   -2.482188    0.829376
 C   -3.982994   -1.890364    2.013038
 H    0.042963   -3.704923    1.948789
 H   -1.740879   -3.724246    1.868991
 H   -0.781421   -3.892006    0.372871
 H    0.962338   -2.289107   -0.461017
 H    3.201186   -2.593582   -0.598272
 H    6.288953    0.022687    1.173002
 H    7.419508   -1.325802    0.834542
 H    5.927193   -1.636200    1.759396
 H    2.807842    2.504652    0.147184
 H    0.867592    3.193632    0.172532
 H   -0.796847    1.125414    1.273533
 H   -2.789892    1.767450    2.434542
 H   -1.705347    2.575264    3.580825
 H   -2.993299    3.506510    2.794234
 H    0.380885    3.200921   -2.054321
 H   -1.211439    3.214463   -1.289015
 H    0.230486    0.919413   -2.709269
 H   -1.299436    1.664259   -3.171401
 H   -3.312275    0.697651   -2.426038
 H   -6.581528   -0.633713   -1.838276
 H   -5.483542    0.771637   -1.733020
 H   -5.184693   -0.509797   -2.945719
 H   -4.786226   -1.183548    1.773274
 H   -4.382488   -2.698229    2.631479
 H   -3.184404   -1.366974    2.558506
