43 
5lqq_ligand_ani.xyz
Cl    2.831458    4.430588    0.014301
 C    1.945029    2.970274   -0.317658
 C    0.609797    3.075157   -0.743794
 C   -0.122135    1.939324   -1.024096
 C    0.487288    0.688262   -0.878688
 C    0.036806   -0.668769   -1.044682
 S   -1.570116   -1.165066   -1.559549
 C   -2.593131   -0.631601   -0.201411
 C   -2.102001   -0.291773    1.061529
 C   -2.984566    0.112703    2.060293
 C   -4.350788    0.160990    1.812387
 C   -4.844798   -0.225583    0.568403
 C   -6.328434   -0.163170    0.347405
 O   -6.829818   -1.007841   -0.580475
 O   -7.056039    0.583682    0.946331
 C   -3.963676   -0.611591   -0.441075
 C    1.074796   -1.499564   -0.703792
 C    1.092618   -2.992731   -0.612908
 N    2.172981   -0.722795   -0.348030
 C    3.420243   -1.195343    0.149757
 C    3.802964   -0.891560    1.456091
 C    5.004917   -1.375938    1.959725
 C    5.840120   -2.149566    1.158412
 C    5.464504   -2.439102   -0.149857
 C    4.256926   -1.968949   -0.654396
 C    1.815537    0.616785   -0.430719
 C    2.576431    1.753796   -0.152773
 H    0.163597    4.058210   -0.850740
 H   -1.156296    2.004368   -1.346845
 H   -1.031649   -0.329330    1.251522
 H   -2.602286    0.397024    3.036581
 H   -5.053654    0.493542    2.570876
 H   -6.152595   -1.640926   -0.855992
 H   -4.322038   -0.853234   -1.439012
 H    0.083299   -3.387356   -0.758531
 H    1.744633   -3.440580   -1.373349
 H    1.464263   -3.321510    0.364671
 H    3.144823   -0.272192    2.060435
 H    5.291547   -1.141375    2.981533
 H    6.781603   -2.523559    1.552393
 H    6.111775   -3.038875   -0.784317
 H    3.957123   -2.189136   -1.675550
 H    3.608229    1.686501    0.176447
