65 
5lrq_ligand_ani.xyz
 C    3.589170    4.072944   -0.339701
 C    2.460661    1.967859   -0.210433
 C    3.653451    1.263512   -0.153206
 C    3.641877   -0.134305   -0.023888
 C    2.405375   -0.785052    0.032078
 C    1.213041   -0.078156   -0.022462
 C    1.212619    1.305096   -0.148231
 C   -1.253876    1.781938   -0.121819
 C   -2.890558    0.263304    0.388004
 C   -4.121892   -1.839825    0.180535
 C   -5.940440   -3.578439   -1.102620
 C   -6.286271   -2.272849   -0.807944
 C   -5.403880   -1.379418   -0.184677
 C   -6.019828   -0.044214    0.117527
 C   -6.030536    2.247261    0.837070
 C    4.986030   -1.975506   -0.890588
 C    7.337094   -2.330303   -0.093394
 C    7.114265   -1.190752    0.886704
 O   -7.235994    0.073096    0.091983
 N   -5.254516    1.073523    0.422139
 C   -3.884167    1.246447    0.153068
 C   -3.391279    2.483106   -0.270564
 N   -2.106954    2.772265   -0.437040
 C   -4.682062   -4.034334   -0.730134
 C   -3.800994   -3.182652   -0.084975
 N   -3.144562   -1.033068    0.794863
 C   -2.064090   -1.687061    1.529916
 N   -1.594266    0.574222    0.300541
 N    0.068067    2.105622   -0.250240
 O    2.381644    3.325258   -0.333260
 C    3.221833    5.540008   -0.395118
 N    4.818922   -0.897586    0.081647
 C    6.071400   -0.210144    0.363581
 O    8.259406   -3.226346    0.502753
 C    5.998237   -3.000437   -0.396220
 H    4.193741    3.790728   -1.212231
 H    4.168820    3.848677    0.566203
 H    4.603946    1.782227   -0.236850
 H    2.381260   -1.864629    0.147544
 H    0.269902   -0.607474    0.008496
 H   -6.647344   -4.236148   -1.600610
 H   -7.274766   -1.897298   -1.052713
 H   -6.439840    2.782330   -0.029015
 H   -6.866252    1.917707    1.451456
 H   -5.397838    2.917038    1.422356
 H    5.315473   -1.571655   -1.867430
 H    4.021205   -2.458365   -1.064406
 H    7.752074   -1.919116   -1.031724
 H    8.060078   -0.669717    1.072404
 H    6.780116   -1.614029    1.841473
 H   -4.081860    3.294705   -0.495305
 H   -4.384366   -5.060622   -0.931811
 H   -2.829256   -3.570087    0.202421
 H   -1.310244   -2.105749    0.846437
 H   -1.564687   -0.946746    2.156902
 H   -2.471891   -2.482628    2.158230
 H    0.234043    3.070772   -0.500730
 H    2.650649    5.760997   -1.301641
 H    2.620735    5.822107    0.474380
 H    4.129596    6.151007   -0.400672
 H    6.472125    0.289656   -0.541461
 H    5.888374    0.562357    1.117459
 H    8.413423   -3.948885   -0.119025
 H    6.123707   -3.788431   -1.150708
 H    5.630725   -3.477814    0.520359
