96 
5lsh_ligand_xtb.xyz
 O   -1.126772    0.480404   -2.782082
 C   -1.365331    1.544979   -1.911671
 C   -2.869305    1.592856   -1.558857
 O   -3.178233    0.342340   -1.001633
 C   -4.542681    0.011028   -1.009932
 C   -5.379410    0.692764    0.094405
 O   -6.035901    1.848695   -0.323204
 C   -6.381269   -0.398542    0.512065
 O   -6.247844   -0.601684    1.877291
 O   -6.069965   -1.563009   -0.227850
 C   -4.730821   -1.472121   -0.690909
 C   -4.573298   -2.434342   -1.872797
 O   -4.684442   -3.764265   -1.417094
 C   -3.210876   -2.309254   -2.565124
 O   -2.137924   -2.435306   -1.664689
 C   -0.588584    1.470525   -0.589946
 C   -0.975603    2.679553    0.277099
 O   -0.536921    3.868158   -0.333748
 C   -2.495272    2.703065    0.500168
 C   -2.962790    3.959743    1.252771
 O   -2.856433    5.129720    0.504880
 O   -3.217489    2.653670   -0.721644
 O    0.823095    1.566097   -0.725810
 C    1.445878    0.583747   -1.519960
 C    2.952277    0.639249   -1.208116
 O    3.672913    1.126608   -2.294853
 C    3.280321   -0.830485   -0.839172
 C    1.924418   -1.342927   -0.349634
 C    1.681904   -2.853563   -0.457736
 C    2.543197   -3.660897    0.524417
 O    3.866325   -3.848821    0.092048
 O    0.341266   -3.149962   -0.170962
 O    0.991730   -0.704452   -1.208910
 O    4.277410   -0.998425    0.138225
 C    5.578844   -0.734336   -0.320645
 C    6.569350   -1.384520    0.654382
 O    6.412046   -2.768879    0.766644
 C    6.438869   -0.690306    2.018823
 O    7.391071   -1.204917    2.919787
 C    6.706713    0.811796    1.839570
 O    8.042397    1.035336    1.475240
 C    5.764462    1.364239    0.763616
 O    5.838216    0.632338   -0.453265
 C    6.080964    2.812196    0.403836
 O    4.997373    3.312461   -0.347226
 C   -7.238069   -1.451800    2.440167
 C   -7.018972   -1.522603    3.946743
 C   -7.278364   -0.178926    4.616146
 H   -1.264539   -0.350874   -2.302779
 H   -1.096941    2.459935   -2.450302
 H   -3.454417    1.755697   -2.478108
 H   -4.992751    0.252790   -1.985928
 H   -4.737346    0.885039    0.965474
 H   -5.362817    2.524690   -0.504214
 H   -7.413651   -0.117976    0.251922
 H   -4.024765   -1.749429    0.105931
 H   -5.367424   -2.215532   -2.603533
 H   -5.486966   -3.824730   -0.886234
 H   -3.114881   -1.334805   -3.043642
 H   -3.157526   -3.093338   -3.332212
 H   -2.284430   -3.254924   -1.172709
 H   -0.854972    0.531244   -0.086435
 H   -0.486938    2.570781    1.259578
 H    0.360884    3.700336   -0.652737
 H   -2.734980    1.814892    1.106226
 H   -2.378464    4.026434    2.185007
 H   -4.020560    3.852288    1.508914
 H   -2.001118    5.112512    0.051482
 H    1.249729    0.764163   -2.583791
 H    3.083620    1.278075   -0.326227
 H    4.537183    1.415451   -1.961591
 H    3.568769   -1.353532   -1.764893
 H    1.772242   -1.021496    0.691918
 H    1.922945   -3.161896   -1.491175
 H    2.039733   -4.622089    0.685838
 H    2.608706   -3.136834    1.478971
 H    3.864908   -4.359669   -0.725593
 H   -0.217705   -2.573963   -0.714154
 H    5.715747   -1.148717   -1.332132
 H    7.583695   -1.207131    0.273802
 H    5.466780   -2.994977    0.716511
 H    5.419919   -0.845845    2.404256
 H    7.444627   -2.156453    2.753593
 H    6.489071    1.325642    2.790915
 H    8.576346    0.456064    2.038607
 H    4.739306    1.309742    1.157672
 H    6.219702    3.389956    1.326479
 H    7.011329    2.821414   -0.171990
 H    5.238135    4.168075   -0.716895
 H   -8.234269   -1.045313    2.213199
 H   -7.161622   -2.450240    1.989944
 H   -5.988920   -1.830661    4.129680
 H   -7.685148   -2.283513    4.357135
 H   -6.643791    0.581311    4.169757
 H   -7.064465   -0.235896    5.680503
 H   -8.316621    0.117752    4.486551
