96 
5lsh_ligand_dft.xyz
 O   -1.151300    1.845971   -2.675872
 C   -1.345691    2.474935   -1.432100
 C   -2.788733    2.269206   -0.960276
 O   -2.973095    0.885142   -0.851387
 C   -4.310556    0.462068   -0.748061
 C   -4.894890    0.506054    0.669843
 O   -5.581218    1.686376    0.984033
 C   -5.839936   -0.703479    0.702846
 O   -5.485352   -1.505300    1.777895
 O   -5.676646   -1.382624   -0.538669
 C   -4.422419   -1.011653   -1.103242
 C   -4.488179   -1.338589   -2.586644
 O   -4.705975   -2.729722   -2.757520
 C   -3.206631   -1.023024   -3.345050
 O   -2.139035   -1.844162   -2.894648
 C   -0.419456    1.979399   -0.319743
 C   -0.717947    2.748069    0.963199
 O   -0.369450    4.113197    0.816762
 C   -2.195145    2.620296    1.332257
 C   -2.610949    3.490180    2.517233
 O   -2.602155    4.864050    2.253780
 O   -3.060885    2.944477    0.243119
 O    0.960854    2.181873   -0.570706
 C    1.533295    1.421705   -1.630000
 C    2.984152    1.076492   -1.246832
 O    3.887849    1.571593   -2.189315
 C    2.943871   -0.470267   -1.135694
 C    1.465011   -0.728981   -0.872665
 C    0.841454   -2.094018   -1.120250
 C    1.529082   -3.200045   -0.318891
 O    2.792036   -3.563781   -0.856111
 O   -0.503150   -2.066526   -0.699448
 O    0.861179    0.196124   -1.777377
 O    3.739067   -1.016804   -0.107508
 C    5.094779   -1.157045   -0.438602
 C    5.740368   -2.108093    0.562904
 O    5.192935   -3.402849    0.580247
 C    5.704075   -1.485929    1.957232
 O    6.402151   -2.309078    2.870111
 C    6.402141   -0.123941    1.937508
 O    7.783950   -0.283502    1.716340
 C    5.793556    0.730769    0.828673
 O    5.772953    0.068871   -0.432090
 C    6.528109    2.030606    0.588215
 O    5.731015    2.791370   -0.310006
 C   -6.379472   -2.579777    2.018927
 C   -5.940526   -3.298840    3.282903
 C   -5.958754   -2.397703    4.515935
 H   -0.855747    0.937928   -2.504618
 H   -1.189015    3.546690   -1.580845
 H   -3.493204    2.688836   -1.688510
 H   -4.954814    1.062820   -1.409886
 H   -4.082473    0.299921    1.381267
 H   -4.945256    2.410827    0.858690
 H   -6.893703   -0.404507    0.763460
 H   -3.599639   -1.569077   -0.632962
 H   -5.315410   -0.759824   -3.026916
 H   -5.394861   -2.981738   -2.127193
 H   -2.905144    0.015466   -3.198877
 H   -3.381749   -1.195027   -4.414756
 H   -2.511319   -2.736844   -2.824932
 H   -0.620167    0.917007   -0.141003
 H   -0.133127    2.297389    1.779859
 H    0.514132    4.128273    0.421554
 H   -2.347370    1.568605    1.615298
 H   -1.960443    3.218235    3.366725
 H   -3.636920    3.226356    2.795362
 H   -1.753864    5.064046    1.830852
 H    1.452347    1.962931   -2.573044
 H    3.172277    1.494413   -0.251260
 H    4.711478    1.763187   -1.708336
 H    3.232140   -0.894638   -2.107450
 H    1.231672   -0.452345    0.168351
 H    0.921088   -2.327491   -2.193844
 H    0.848515   -4.057688   -0.275309
 H    1.714324   -2.865201    0.705421
 H    2.663979   -4.192333   -1.574399
 H   -1.057331   -1.736180   -1.431542
 H    5.193598   -1.539777   -1.461329
 H    6.792333   -2.198812    0.270619
 H    4.285711   -3.381646    0.222694
 H    4.657262   -1.357674    2.268555
 H    6.155155   -3.217265    2.639672
 H    6.222098    0.385371    2.898911
 H    8.035824   -1.057959    2.242545
 H    4.763119    0.966804    1.130282
 H    6.660198    2.559189    1.542225
 H    7.514514    1.807799    0.167225
 H    6.258543    3.519786   -0.654846
 H   -7.401349   -2.183560    2.138327
 H   -6.380590   -3.264661    1.160962
 H   -4.933102   -3.701377    3.124825
 H   -6.607229   -4.157472    3.429550
 H   -5.282021   -1.549462    4.382745
 H   -5.649691   -2.947736    5.410215
 H   -6.964248   -1.999511    4.694875
