96 
5lsh_ligand_ani.xyz
 O   -0.963441   -0.154741   -2.178483
 C   -1.354181    1.115384   -1.685549
 C   -2.878335    1.157708   -1.579637
 O   -3.260619    0.094505   -0.745493
 C   -4.563134   -0.409152   -0.958168
 C   -5.663267    0.437065   -0.317261
 O   -6.188888    1.424772   -1.165469
 C   -6.726850   -0.594975    0.079420
 O   -7.069649   -0.373642    1.412489
 O   -6.145082   -1.876071   -0.105537
 C   -4.721958   -1.741175   -0.255632
 C   -4.210234   -2.982876   -0.981289
 O   -4.157921   -4.076817   -0.072539
 C   -2.800520   -2.852124   -1.545032
 O   -1.852819   -2.556839   -0.529189
 C   -0.744983    1.452679   -0.314485
 C   -1.311124    2.775797    0.194408
 O   -0.877169    3.838711   -0.634382
 C   -2.837814    2.741529    0.197232
 C   -3.463193    4.072599    0.599724
 O   -3.303189    5.104206   -0.335415
 O   -3.359041    2.384171   -1.087925
 O    0.663559    1.650604   -0.373233
 C    1.411223    0.590387   -0.887477
 C    2.896399    0.815545   -0.609831
 O    3.478421    1.619965   -1.592458
 C    3.428493   -0.619610   -0.561813
 C    2.265442   -1.392273    0.063856
 C    2.087948   -2.817179   -0.487012
 C    3.218099   -3.750902   -0.051375
 O    4.456993   -3.498260   -0.697038
 O    0.910131   -3.400752    0.018968
 O    1.087725   -0.627430   -0.228875
 O    4.602183   -0.790830    0.212520
 C    5.799889   -0.424701   -0.430935
 C    6.975589   -1.111998    0.256145
 O    6.931333   -2.520732    0.217554
 C    7.058565   -0.636181    1.702220
 O    8.210357   -1.194664    2.304349
 C    7.194156    0.881979    1.740575
 O    8.439351    1.267579    1.205921
 C    6.073029    1.507987    0.913507
 O    6.016480    0.955054   -0.405729
 C    6.215163    3.003267    0.733843
 O    5.031776    3.450258    0.076785
 C   -8.014688   -1.295996    1.935440
 C   -8.558796   -0.751525    3.245247
 C   -9.333734    0.551470    3.077950
 H   -1.097478   -0.802987   -1.461160
 H   -1.020334    1.860328   -2.412159
 H   -3.317810    1.023833   -2.576231
 H   -4.774192   -0.518142   -2.035933
 H   -5.264063    0.863297    0.615423
 H   -5.497046    2.096506   -1.274328
 H   -7.626610   -0.524145   -0.554200
 H   -4.240634   -1.676099    0.728856
 H   -4.899022   -3.195057   -1.811944
 H   -5.038941   -4.161483    0.318358
 H   -2.761452   -2.054755   -2.288592
 H   -2.532041   -3.790517   -2.042274
 H   -2.128674   -3.074866    0.245851
 H   -0.977312    0.651972    0.399224
 H   -0.963108    2.936267    1.227987
 H    0.082706    3.753436   -0.719043
 H   -3.149161    1.980124    0.931185
 H   -3.059231    4.352777    1.589229
 H   -4.541509    3.919589    0.719579
 H   -2.374901    5.078762   -0.615437
 H    1.222310    0.488471   -1.966338
 H    2.984003    1.247910    0.401157
 H    4.212367    2.102940   -1.174478
 H    3.603211   -0.961919   -1.593726
 H    2.385668   -1.434580    1.155675
 H    2.057465   -2.762664   -1.590124
 H    2.892557   -4.783309   -0.214820
 H    3.378674   -3.620734    1.023565
 H    4.428636   -3.872761   -1.586156
 H    0.145364   -2.882864   -0.285216
 H    5.747627   -0.720107   -1.489031
 H    7.892203   -0.793174   -0.252221
 H    6.004512   -2.802394    0.104916
 H    6.151431   -0.944669    2.245747
 H    8.242643   -2.113450    1.992891
 H    7.096956    1.227251    2.785499
 H    9.083516    0.645218    1.578010
 H    5.118451    1.305065    1.421503
 H    6.330881    3.495829    1.710951
 H    7.105372    3.201951    0.128756
 H    5.158973    4.358331   -0.219919
 H   -8.837015   -1.431077    1.213469
 H   -7.542099   -2.276376    2.084412
 H   -7.723827   -0.613729    3.942065
 H   -9.207197   -1.522872    3.680430
 H   -8.688540    1.344053    2.687828
 H   -9.746794    0.886868    4.034579
 H  -10.167595    0.425211    2.377172
