21 
5lto_ligand_ani.xyz
 N    0.854486    1.751568    0.059526
 C    1.144600    0.463829    0.774366
 C    1.751553   -0.526067   -0.210072
 O    1.781781   -1.724098   -0.091465
 C   -0.056849   -0.118225    1.532759
 C   -1.113738   -0.863001    0.715465
 C   -1.966736    0.014490   -0.185017
 O   -1.793117    1.221689   -0.325755
 N   -2.964721   -0.627082   -0.835574
 O    2.323668    0.123345   -1.249328
 H   -0.168853    1.784401   -0.154809
 H    1.396051    1.754479   -0.817810
 H    1.123682    2.561087    0.636430
 H    1.941502    0.651726    1.499295
 H   -0.534298    0.697737    2.085029
 H    0.337729   -0.818048    2.273972
 H   -1.786548   -1.385790    1.407974
 H   -0.639133   -1.638588    0.104061
 H   -3.109408   -1.620273   -0.756301
 H   -3.554104   -0.094034   -1.456591
 H    2.713385   -0.557751   -1.821524
