15 
5lud_ligand_ani.xyz
 N   -1.751430    1.332046   -0.037462
 C   -0.492960    0.713336   -0.006418
 C   -0.455886   -0.701760    0.001591
 N   -1.671666   -1.386385    0.034111
 C    0.713222    1.388708   -0.031606
 C    1.901628    0.656410   -0.015862
 C    1.827008   -0.724703    0.020124
 N    0.668207   -1.399609    0.033597
 H   -2.386592    0.920142    0.638277
 H   -1.702621    2.333295    0.100061
 H   -2.366048   -0.993548   -0.591755
 H   -1.544144   -2.379613   -0.116226
 H    0.732991    2.478077   -0.057908
 H    2.863143    1.160308   -0.029271
 H    2.729421   -1.332973    0.038125
