34 
5lvq_ligand_xtb.xyz
 C   -1.927690    3.478322   -0.039710
 N   -1.640822    2.079205   -0.227017
 C   -2.452241    1.111835    0.249573
 C   -2.029142   -0.304544    0.001900
 C   -3.046775   -1.248546    0.106219
 C   -2.815713   -2.596435   -0.080683
 C   -1.533023   -3.021309   -0.372641
 C   -0.499281   -2.106885   -0.467496
 C   -0.724707   -0.745671   -0.285349
 O    0.262015    0.198150   -0.386415
 C    1.632875   -0.170302   -0.396231
 C    2.105339   -0.674592    0.970387
 C    3.621182   -0.878909    0.932245
 O    4.302644    0.302025    0.584470
 C    3.922830    0.776933   -0.683844
 C    2.426145    1.088508   -0.752079
 O   -3.501056    1.360966    0.818791
 H   -1.926940    3.999531   -0.998872
 H   -2.914929    3.553702    0.414144
 H   -1.192140    3.945070    0.620143
 H   -0.757712    1.822383   -0.636932
 H   -4.033090   -0.881200    0.347269
 H   -3.623544   -3.306520    0.002635
 H   -1.324378   -4.069964   -0.524734
 H    0.490464   -2.471072   -0.694274
 H    1.816390   -0.933346   -1.167548
 H    1.608971   -1.607496    1.238693
 H    1.856712    0.077424    1.721538
 H    3.866687   -1.678178    0.213699
 H    3.997065   -1.161575    1.917018
 H    4.178363    0.032336   -1.455319
 H    4.512812    1.679136   -0.853965
 H    2.183164    1.871139   -0.031700
 H    2.160248    1.434635   -1.751204
