34 
5lvq_ligand_ani.xyz
 C   -1.259517    3.607287   -0.362649
 N   -1.213555    2.167067   -0.480393
 C   -1.984247    1.363010    0.290915
 C   -1.884983   -0.126818    0.037916
 C   -2.944926   -0.897247    0.525290
 C   -3.004292   -2.270060    0.322798
 C   -1.977976   -2.902038   -0.371990
 C   -0.892773   -2.165634   -0.831984
 C   -0.830495   -0.788850   -0.615706
 O    0.269771   -0.091591   -1.058516
 C    1.539254   -0.500119   -0.530756
 C    1.567595   -0.454922    0.997642
 C    2.987550   -0.716428    1.487348
 O    3.906666    0.209862    0.942493
 C    3.948923    0.138777   -0.469042
 C    2.589672    0.450543   -1.085382
 O   -2.762764    1.791315    1.134775
 H   -1.598675    4.069162   -1.296303
 H   -1.966851    3.852481    0.431661
 H   -0.275132    4.011358   -0.101056
 H   -0.581554    1.730590   -1.133138
 H   -3.727730   -0.373089    1.066693
 H   -3.846383   -2.841955    0.702180
 H   -2.009339   -3.974748   -0.544260
 H   -0.088481   -2.654668   -1.376521
 H    1.762006   -1.521269   -0.872243
 H    0.874112   -1.190306    1.423438
 H    1.247712    0.538990    1.333816
 H    3.290629   -1.744430    1.219966
 H    3.056330   -0.617072    2.574510
 H    4.278092   -0.868125   -0.782856
 H    4.707810    0.857923   -0.791029
 H    2.305325    1.479777   -0.830574
 H    2.634916    0.374211   -2.177955
