25 
5lvr_ligand_xtb.xyz
 C   -1.646128    0.042309    0.001110
 C   -2.502573    1.137269   -0.024047
 C   -3.868297    0.926415   -0.025159
 N    0.602314   -0.729149   -0.004053
 C   -4.377272   -0.362607   -0.001030
 C   -3.516439   -1.448500    0.024877
 N   -0.268751    0.251236    0.001743
 C   -2.148233   -1.253762    0.026076
 N    0.263026    1.459056    0.008330
 O    4.156053   -0.339045    0.008613
 C    3.064966   -0.873954   -0.005319
 N    2.896806   -2.214837   -0.027384
 C    1.792347   -0.130310   -0.000880
 C    1.572446    1.268277    0.007602
 C    2.567706    2.362995    0.013962
 H   -2.082751    2.130080   -0.042460
 H   -4.539029    1.771893   -0.045162
 H   -5.444969   -0.521238   -0.002426
 H   -3.913014   -2.452330    0.044817
 H   -1.462084   -2.085203    0.046557
 H    3.704117   -2.814500   -0.031211
 H    1.971685   -2.605873   -0.036692
 H    2.447986    2.979494   -0.875382
 H    2.417260    2.998131    0.885165
 H    3.567462    1.938968    0.034273
