56 
5lwm_ligand_ani.xyz
 C   40.983313   23.591512   54.384797
 C   37.061082   22.312475   55.007403
 C   37.442514   21.225328   55.735540
 N   38.809025   21.200057   55.828916
 C   39.024251   25.958065   52.689831
 C   38.866248   27.133801   51.858925
 N   38.015248   25.151954   53.193122
 C   39.837651   27.981111   51.412509
 C   39.198275   28.967434   50.624375
 C   37.857802   28.656097   50.621609
 C   36.643253   29.163182   50.041831
 N   40.220578   25.553579   53.031268
 C   36.463938   30.169140   49.149080
 C   37.540993   31.072350   48.616290
 C   38.376694   32.418565   46.790140
 N   37.486396   31.385573   47.286111
 N   34.035829   30.727834   48.436698
 C   35.121709   30.481334   48.757155
 O   38.422849   31.510248   49.344643
 C   36.659819   30.723040   46.293574
 O   37.660742   27.541308   51.383024
 C   40.019240   24.427862   53.777918
 N   40.651777   22.516101   55.074406
 C   38.648888   24.148440   53.893051
 C   38.251982   23.017656   54.613277
 C   39.328894   22.269702   55.161182
 C   36.566469   25.340138   53.063871
 C   35.908545   25.541164   54.433424
 C   34.391033   25.704105   54.301100
 C   33.772020   24.524290   53.542258
 C   34.419117   24.364891   52.161612
 C   35.935283   24.185541   52.280835
 H   42.040527   23.828650   54.286719
 H   36.029605   22.555864   54.795809
 H   36.849032   20.451361   56.206576
 H   39.369539   20.513070   56.307351
 H   40.890667   27.884212   51.640094
 H   39.637997   29.819757   50.132977
 H   35.745067   28.635132   50.351584
 H   38.946006   32.811771   47.631614
 H   39.070139   32.005541   46.045907
 H   37.807869   33.228507   46.318915
 H   36.401825   29.710231   46.607438
 H   35.739891   31.281909   46.088611
 H   37.228850   30.648250   45.361598
 H   36.422518   26.251152   52.490159
 H   36.124488   24.679607   55.074208
 H   36.357186   26.414973   54.916349
 H   34.169098   26.637139   53.761951
 H   33.939060   25.804376   55.295149
 H   32.686613   24.650555   53.449245
 H   33.934529   23.601330   54.121898
 H   34.207130   25.260068   51.556780
 H   33.982757   23.514212   51.624924
 H   36.154537   23.238249   52.785370
 H   36.402613   24.134207   51.292000
