61 
5lxp_ligand_xtb.xyz
 C    0.782388    1.265669   -1.526130
 C   -0.482077    1.775697   -1.765783
 C   -0.728664    3.125106   -1.576748
 C    0.295510    3.959564   -1.160169
 C    1.560941    3.448153   -0.933645
 C    1.818299    2.093688   -1.114236
 C    3.181364    1.505877   -0.834158
 C    4.276906    2.157882   -1.674407
 C    3.508339    1.635301    0.667558
 N    2.429129    1.098995    1.445669
 C    1.353109    1.748101    1.936137
 N    2.304172   -0.197722    1.651890
 N    1.195779   -0.419322    2.260019
 C    0.558697    0.750776    2.468388
 C   -0.779789    0.854218    3.116796
 N   -1.755282    1.399805    2.194146
 C   -2.754497    0.655216    1.664828
 O   -2.989137   -0.474467    2.042992
 C   -3.503540    1.387733    0.565902
 C   -4.767714    0.694144    0.054229
 C   -4.541737   -0.749617   -0.417957
 C   -3.256807   -0.880957   -1.220247
 O   -3.124655   -0.399128   -2.327812
 N   -2.289074   -1.568782   -0.557733
 C   -1.016853   -1.946727   -0.996129
 C   -0.144740   -2.486608   -0.052389
 C   -0.615696   -1.843539   -2.325958
 C    0.643894   -2.281785   -2.698235
 C    1.503354   -2.830701   -1.765333
 C    1.112879   -2.932291   -0.432619
 C    2.050113   -3.593499    0.527115
 O    2.854991   -4.430229    0.162122
 N    1.901154   -3.238673    1.823656
 H    0.966778    0.210650   -1.665827
 H   -1.266675    1.118874   -2.110714
 H   -1.713066    3.529284   -1.762973
 H    0.109751    5.014486   -1.016419
 H    2.351768    4.114128   -0.617567
 H    3.145083    0.436666   -1.068179
 H    5.233070    1.674729   -1.488705
 H    4.038185    2.059146   -2.730007
 H    4.373508    3.215756   -1.442671
 H    4.411262    1.067466    0.901261
 H    3.652238    2.682239    0.943603
 H    1.239720    2.809817    1.881914
 H   -0.723349    1.490178    4.007811
 H   -1.125898   -0.141406    3.401638
 H   -1.549662    2.300583    1.791231
 H   -3.765994    2.384590    0.929448
 H   -2.801597    1.513698   -0.263439
 H   -5.148616    1.286625   -0.779807
 H   -5.524147    0.686462    0.840772
 H   -4.520179   -1.417049    0.441053
 H   -5.371310   -1.036131   -1.066730
 H   -2.475967   -1.774331    0.417413
 H   -0.471261   -2.582172    0.972813
 H   -1.290223   -1.431837   -3.057958
 H    0.947043   -2.201130   -3.731792
 H    2.477478   -3.199036   -2.048103
 H    1.468051   -2.358779    2.071649
 H    2.581181   -3.611428    2.467476
