66 
5lyh_ligand_ani.xyz
 O   -1.854164    0.842563   -1.782528
 C   -1.867707    1.871753   -1.151770
 O   -0.711010    2.525000   -0.925236
 C   -3.130239    2.454167   -0.595531
 C   -4.260617    1.638423   -0.642254
 C   -3.241312    3.740918   -0.062627
 C   -4.453977    4.182738    0.454660
 C   -5.570925    3.352019    0.452448
 C   -5.456994    2.079042   -0.096353
 S   -6.850592    0.984253   -0.090144
 O   -8.016722    1.723883    0.362877
 O   -6.849580    0.259486   -1.352661
 N   -6.495411   -0.068789    1.140827
 C   -5.710964   -1.266230    0.895488
 C   -4.328559   -1.126836    1.549993
 N   -3.372935   -2.117528    1.079848
 C   -2.485524   -2.013377    0.056537
 N   -3.306476   -3.325194    1.636380
 N   -2.398425   -4.006146    1.008681
 C   -1.864526   -3.239838    0.018077
 C   -0.793681   -3.776353   -0.873223
 C    0.595969   -3.768952   -0.227185
 N    1.548861   -4.354561   -1.148536
 C    2.899075   -4.162106   -1.208105
 O    3.596780   -4.811989   -1.970102
 C    3.479357   -3.089872   -0.295244
 C    5.002428   -3.035397   -0.410544
 C    5.553594   -1.944679    0.485908
 O    5.714322   -2.116991    1.680738
 N    5.794597   -0.754452   -0.155530
 C    6.275720    0.445661    0.405964
 C    6.068064    1.620435   -0.319168
 C    6.954780    0.491353    1.624333
 C    7.431390    1.713466    2.089677
 C    7.224008    2.884673    1.372412
 C    6.514165    2.842630    0.173385
 C    6.287533    4.136061   -0.557793
 O    7.012517    5.102267   -0.406516
 N    5.221019    4.148550   -1.421717
 H   -0.849540    3.263808   -0.319620
 H   -4.168589    0.657683   -1.101316
 H   -2.397844    4.431590   -0.062231
 H   -4.526812    5.183664    0.871695
 H   -6.525023    3.673086    0.859987
 H   -7.265398   -0.121120    1.794410
 H   -5.616857   -1.427280   -0.182899
 H   -6.225843   -2.126728    1.331138
 H   -4.414822   -1.218884    2.635557
 H   -3.910042   -0.142369    1.323035
 H   -2.380845   -1.101881   -0.522125
 H   -0.746536   -3.206938   -1.809042
 H   -1.049312   -4.812366   -1.128001
 H    0.558045   -4.313579    0.727116
 H    0.892156   -2.738468   -0.003756
 H    1.230274   -5.113341   -1.737001
 H    3.191290   -3.286375    0.746282
 H    3.043352   -2.117328   -0.564686
 H    5.292197   -2.889154   -1.456001
 H    5.428185   -3.985578   -0.081269
 H    5.555832   -0.702369   -1.134148
 H    5.575132    1.573739   -1.288300
 H    7.103996   -0.418952    2.190828
 H    7.972408    1.745275    3.032142
 H    7.602452    3.840775    1.720179
 H    4.993887    5.057440   -1.799046
 H    4.445607    3.522487   -1.267370
