46 
5lyr_ligand_xtb.xyz
 C   -0.671897   -0.572629    1.146232
 C   -1.578293   -1.723972    0.677505
 C   -2.416297   -1.321240   -0.553377
 C   -3.103206    0.044401   -0.318708
 C   -1.996059    1.030313    0.061597
 C   -2.447252    2.472370    0.232740
 O   -2.420541   -2.120426    1.726763
 O   -3.351800   -2.313816   -0.861652
 O   -3.731572    0.489170   -1.485815
 O   -1.386714    0.611642    1.282658
 O   -1.276662    3.277569    0.248007
 C    1.363371    0.540981    0.681350
 C    1.776193    1.463466   -0.481050
 C    2.637960   -0.139525    1.230837
 O    0.413636   -0.421899    0.255301
 O    0.762980    2.090897   -1.168967
 N    2.445184    0.601057   -1.498333
 O    3.434675    0.895803    1.750143
 C    3.417622   -0.914156    0.138067
 C    2.726535   -2.202495   -0.348668
 C    3.721059    0.033251   -1.024242
 O    1.878004   -1.942208   -1.455850
 H   -0.304172   -0.806453    2.158539
 H   -0.970772   -2.601447    0.435090
 H   -1.764541   -1.220623   -1.429721
 H   -3.834775   -0.037551    0.503379
 H   -1.257775    1.005250   -0.749518
 H   -3.094911    2.729359   -0.610249
 H   -2.994232    2.578812    1.174966
 H   -2.802925   -1.337753    2.145456
 H   -3.681012   -2.691542   -0.032357
 H   -4.206572   -0.259580   -1.872836
 H   -1.538759    4.204413    0.273601
 H    0.931527    1.168107    1.470745
 H    2.520737    2.177050   -0.087428
 H    2.334251   -0.842993    2.017254
 H    0.129950    2.564448   -0.582291
 H    1.820924   -0.227122   -1.666829
 H    2.535570    1.144717   -2.361732
 H    4.051001    0.554293    2.407613
 H    4.369410   -1.210906    0.589332
 H    3.497258   -2.918989   -0.660087
 H    2.161392   -2.641119    0.478899
 H    4.374334    0.841317   -0.687717
 H    4.198053   -0.510918   -1.840290
 H    1.255284   -2.666614   -1.563901
