44 
5lyx_ligand_ani.xyz
 C    2.493736    0.625291    0.781665
 C    3.609841    1.248221    1.278154
 C    4.894648    0.754742    0.956149
 O    1.235835    1.103686    1.070716
 C    3.895928   -0.989173   -0.386730
 C    3.988915   -2.115270   -1.253633
 C    1.725776   -2.312597   -1.404500
 C    1.496642   -1.240043   -0.582834
 C   -0.696025    2.364787    0.330281
 C   -1.108162    3.635681   -0.416799
 C   -1.556190    3.120871   -1.783906
 C   -2.257980    1.800193   -1.463089
 C   -1.873016   -1.262992    2.378886
 C   -1.399980   -0.105208    1.729774
 C   -3.344014   -1.742171    0.756187
 N   -2.947236   -0.610379    0.059439
 N   -4.277394   -2.376899    0.060187
 C    5.042158   -0.332961    0.137179
 C    2.605495   -0.525622   -0.053496
 N    2.960913   -2.756829   -1.751318
 N   -1.653035    1.366163   -0.186091
 C    0.766732    2.000841    0.062690
 C   -1.979277    0.260069    0.516947
 N   -2.811782   -2.076864    1.945807
 N   -3.648530   -0.532089   -1.111065
 C   -4.407681   -1.606906   -1.032890
 H    3.492195    2.125809    1.907626
 H    5.768500    1.260486    1.357560
 H    4.979903   -2.478462   -1.529160
 H    0.895560   -2.868966   -1.832071
 H    0.486320   -0.933150   -0.333172
 H   -0.818868    2.484428    1.412305
 H   -0.292417    4.363829   -0.470201
 H   -1.945316    4.112615    0.105154
 H   -0.689259    2.946274   -2.432540
 H   -2.217541    3.820395   -2.303487
 H   -2.119479    1.039738   -2.234961
 H   -3.334493    1.937269   -1.331899
 H   -1.432079   -1.531954    3.339835
 H   -0.584478    0.457972    2.156370
 H    6.027387   -0.710628   -0.123936
 H    0.865553    1.530699   -0.924181
 H    1.391099    2.905449    0.078635
 H   -5.105091   -1.849528   -1.826522
