82 
5lzh_ligand_ani.xyz
 C   -0.247434    4.179572    0.406380
 C    0.383085    3.359968    1.527059
 C   -0.592420    2.997600    2.640652
 C    0.753023    4.340938   -0.737550
 O    2.421400    3.253778   -2.070757
 C    1.407510    3.006082   -1.119507
 O    0.143051    4.919483   -1.872632
 O   -1.462362    3.632924   -0.069845
 O    0.033826    2.137407    3.579962
 O    0.920297    2.133122    1.034966
 C    1.999290    2.351495    0.121359
 C    2.699846    1.017548   -0.113171
 C    4.118029    1.108143   -0.691422
 N    4.751691   -0.198584   -0.724943
 C    5.310686   -0.684414    0.425040
 O    5.545577    0.019126    1.395791
 C    5.568162   -2.179507    0.428967
 C    4.345949   -2.925863    0.989970
 C    3.127178   -2.718188    0.149323
 C    1.831050   -2.403400    0.481567
 N    3.190935   -2.828326   -1.209499
 N    2.015165   -2.631614   -1.715277
 N    1.175280   -2.380220   -0.706960
 C   -0.195406   -1.977475   -1.011959
 C   -0.643099   -2.884897   -2.178266
 O   -0.501576   -2.284394   -3.370742
 O   -1.060788   -4.004771   -2.047266
 O   -0.941612   -2.254004    0.135919
 C   -0.290797   -0.494231   -1.321729
 C   -1.718122   -0.061128   -1.584706
 O   -1.685363    1.357298   -1.673576
 C   -2.644932   -0.497261   -0.430008
 N   -4.064465   -0.461782   -0.779081
 C   -4.736427    0.388473   -1.593283
 O   -4.223887    1.254863   -2.306167
 C   -6.241828    0.223305   -1.590319
 C   -2.338014   -1.947800    0.041303
 C   -2.885831   -2.349402    1.419214
 O   -4.219426   -1.896228    1.564136
 C   -2.059022   -1.883332    2.624863
 O   -2.825007   -2.254649    3.760125
 C   -1.802944   -0.381736    2.697949
 O   -1.416022   -0.109408    4.026316
 H   -0.506807    5.173370    0.791725
 H    1.211620    3.943349    1.965124
 H   -1.480402    2.515046    2.214954
 H   -0.914789    3.897317    3.174831
 H    1.555928    5.019716   -0.418651
 H    2.006347    3.810564   -2.745090
 H    0.641029    2.333786   -1.537849
 H   -0.757275    4.554970   -1.895998
 H   -1.297589    2.737945   -0.424831
 H    0.679259    1.619203    3.069801
 H    2.717114    3.050985    0.585416
 H    2.092489    0.378334   -0.765021
 H    2.756408    0.511995    0.859580
 H    4.745421    1.744988   -0.061903
 H    4.106075    1.521870   -1.703017
 H    4.344312   -0.886119   -1.351705
 H    6.440024   -2.363629    1.062198
 H    5.788465   -2.531734   -0.583672
 H    4.149653   -2.584888    2.013029
 H    4.568369   -3.997884    1.046023
 H    1.342942   -2.185468    1.419009
 H   -0.764335   -2.944908   -4.032451
 H    0.053369    0.047661   -0.430634
 H    0.344515   -0.242533   -2.176570
 H   -2.083980   -0.492025   -2.522004
 H   -2.563486    1.609213   -2.037412
 H   -2.460274    0.207615    0.390958
 H   -4.621314   -1.041822   -0.161929
 H   -6.588898    0.213022   -2.626830
 H   -6.689707    1.098811   -1.108790
 H   -6.592174   -0.680006   -1.081774
 H   -2.789304   -2.625255   -0.697798
 H   -2.879947   -3.448514    1.443706
 H   -4.396833   -1.955832    2.517322
 H   -1.092150   -2.403357    2.632939
 H   -2.504948   -1.683134    4.477806
 H   -1.022166   -0.085859    1.979024
 H   -2.736529    0.156819    2.457982
 H   -0.990719    0.766760    4.032624
