97 
5m0m_ligand_ani.xyz
 C    3.107054    4.366672    0.413397
 C    2.422496    3.561457   -0.697575
 C    0.898538    3.798835   -0.661114
 C    0.206638    3.379994    0.633963
 C   -1.280193    3.695376    0.587587
 O   -1.771786    4.443904   -0.241879
 N   -2.043107    3.094046    1.553465
 C   -3.496411    3.173763    1.493663
 N   -4.357448    0.982474    1.570428
 C   -4.772201   -0.263036    1.251109
 O   -5.039925   -1.122826    2.070524
 O   -4.840697   -0.424729   -0.090711
 C   -5.300945   -1.716315   -0.528637
 C   -6.808419   -1.760539   -0.610907
 C   -7.554501   -2.286807    0.442838
 C   -8.940121   -2.299048    0.354098
Cl   -9.875184   -2.964645    1.658931
 C   -9.602956   -1.789209   -0.754962
 C   -8.841306   -1.253741   -1.786331
Cl   -9.649064   -0.599660   -3.179673
 C   -7.454458   -1.231569   -1.726646
 C    2.779819    2.066517   -0.663234
 C    2.091026    1.255947   -1.794628
 C    3.045008    0.095463   -2.166865
 C    4.129151    0.149254   -1.086891
 C    5.465809   -0.580021   -1.292747
 C    5.270701   -2.054379   -1.657909
 O    4.674121   -2.119313   -2.947976
 C    6.587121   -2.837306   -1.672872
 C    7.400552   -2.694397   -0.382084
 C    6.748905   -3.468526    0.776115
 C    7.528544   -3.352730    2.076131
 O    6.795646   -4.048985    3.071932
 C    7.745138   -1.885954    2.441728
 C    8.425487   -1.140971    1.293871
 C    7.659125   -1.193848   -0.049380
 C    8.582032   -0.588525   -1.120606
 C    6.298194   -0.431247    0.009875
 C    6.444724    1.049297    0.409584
 C    5.098892    1.787693    0.504799
 C    4.276155    1.662507   -0.781502
 C    4.949804    2.418846   -1.936066
 C   -4.104279    2.056065    0.619622
 C   -4.119058    2.913066    2.872187
 C   -4.245899    1.386083    2.962905
 H    4.166816    4.544534    0.209049
 H    2.633939    5.349459    0.525000
 H    3.033582    3.853102    1.379841
 H    2.757654    3.959060   -1.666838
 H    0.698472    4.864615   -0.817970
 H    0.412873    3.288715   -1.501342
 H    0.636350    3.906347    1.498413
 H    0.338257    2.306995    0.827421
 H   -1.630607    2.391696    2.149652
 H   -3.728853    4.162063    1.097108
 H   -4.852675   -1.842403   -1.516734
 H   -4.918396   -2.482706    0.149687
 H   -7.058827   -2.663339    1.332873
 H  -10.686095   -1.804325   -0.813037
 H   -6.884042   -0.800859   -2.544990
 H    2.446548    1.659634    0.305611
 H    1.111508    0.890375   -1.463293
 H    1.903580    1.893047   -2.667954
 H    2.540508   -0.874319   -2.201708
 H    3.486949    0.255422   -3.155480
 H    3.686258   -0.297631   -0.179033
 H    5.997663   -0.124310   -2.137266
 H    4.587766   -2.508069   -0.917795
 H    4.522624   -3.052158   -3.145280
 H    6.364652   -3.899143   -1.852964
 H    7.175132   -2.500179   -2.536536
 H    8.391890   -3.148024   -0.543003
 H    6.661391   -4.530115    0.514392
 H    5.727979   -3.111504    0.954120
 H    8.516082   -3.826490    1.935297
 H    7.295179   -3.990912    3.896320
 H    8.354091   -1.813825    3.352981
 H    6.772836   -1.432900    2.676908
 H    8.626103   -0.100382    1.571423
 H    9.410461   -1.598675    1.121684
 H    8.111616   -0.532239   -2.106261
 H    9.490437   -1.193710   -1.221368
 H    8.896775    0.423995   -0.845318
 H    5.693718   -0.903706    0.804621
 H    6.944941    1.126446    1.379934
 H    7.092460    1.570101   -0.307172
 H    5.289095    2.837061    0.753231
 H    4.519161    1.365802    1.339312
 H    5.951008    2.034322   -2.148047
 H    5.061207    3.481147   -1.691894
 H    4.375092    2.355225   -2.867275
 H   -3.411465    1.744922   -0.165789
 H   -5.037806    2.384459    0.146521
 H   -5.114708    3.369943    2.917675
 H   -3.518883    3.345478    3.677251
 H   -5.128639    1.054432    3.516689
 H   -3.375429    0.914668    3.436478
