93 
5m0s_ligand_ani.xyz
 C    4.698382    3.260703   -1.007787
 C    4.584543    2.297289    0.178810
 C    5.750064    1.284128    0.134932
 C    5.809478    0.431676   -1.151765
 C    5.910963   -1.047660   -0.825907
 O    6.734319   -1.482827   -0.036409
 N    5.022850   -1.869708   -1.464042
 C    4.887813   -3.248461   -1.031757
 C    4.127406   -3.394587    0.289794
 N    2.791465   -2.821319    0.237764
 C    1.815729   -3.455592   -0.467069
 O    1.989827   -4.399101   -1.213355
 O    0.611580   -2.888724   -0.223247
 C   -0.475784   -3.525451   -0.912094
 C   -1.775418   -3.060740   -0.314953
 C   -1.869463   -2.825554    1.056614
 C   -3.085862   -2.430730    1.593494
Cl   -3.186813   -2.069340    3.295922
 C   -4.224699   -2.277558    0.811523
 C   -4.104165   -2.524300   -0.550310
Cl   -5.501747   -2.320172   -1.571731
 C   -2.899207   -2.908412   -1.123857
 C    3.219323    1.595381    0.270345
 C    3.104752    0.662777    1.508773
 C    1.626148    0.688156    1.963540
 C    0.902263    1.423708    0.831281
 C   -0.499005    2.009906    1.062553
 C   -1.480611    0.973887    1.625917
 O   -1.071146    0.666971    2.948903
 C   -2.931700    1.477748    1.658552
 C   -3.419506    2.086600    0.336089
 C   -3.713222    0.995069   -0.707658
 C   -4.176918    1.558649   -2.052592
 O   -4.279333    0.548560   -3.036993
 C   -3.197388    2.603132   -2.567429
 C   -2.977888    3.700307   -1.527782
 C   -2.443137    3.189573   -0.169303
 C   -2.475754    4.378636    0.805852
 C   -1.004295    2.596946   -0.281183
 C    0.010979    3.584846   -0.887864
 C    1.435132    3.016077   -0.991553
 C    1.938831    2.472106    0.347828
 C    2.122936    3.605698    1.367359
 H    5.739675    3.571564   -1.152704
 H    4.108883    4.171683   -0.869363
 H    4.368280    2.787265   -1.940366
 H    4.718505    2.875937    1.104766
 H    5.709374    0.612539    1.000279
 H    6.690361    1.838991    0.240623
 H    6.683933    0.705255   -1.753777
 H    4.936938    0.611952   -1.789487
 H    4.223831   -1.461201   -1.924992
 H    4.365793   -3.804516   -1.811055
 H    5.892190   -3.660076   -0.911400
 H    4.689566   -2.884283    1.077294
 H    4.070895   -4.459061    0.546036
 H    2.483312   -2.204970    0.973741
 H   -0.418396   -3.273673   -1.974931
 H   -0.358673   -4.610328   -0.826342
 H   -1.001383   -2.930926    1.698672
 H   -5.166357   -1.964156    1.248098
 H   -2.844105   -3.084471   -2.194554
 H    3.096476    0.975169   -0.632424
 H    3.438935   -0.347545    1.240409
 H    3.763795    1.000145    2.317299
 H    1.518002    1.241336    2.901372
 H    1.211528   -0.309953    2.142078
 H    0.794680    0.696602    0.005454
 H   -0.432025    2.798253    1.821948
 H   -1.430209    0.065317    0.998218
 H   -1.634613   -0.045872    3.279444
 H   -3.587293    0.641595    1.942738
 H   -3.016461    2.216732    2.466134
 H   -4.378277    2.594713    0.525493
 H   -4.496305    0.336687   -0.308497
 H   -2.832798    0.361154   -0.874698
 H   -5.157488    2.046864   -1.904729
 H   -4.928293   -0.103994   -2.738576
 H   -3.582726    3.020806   -3.503996
 H   -2.251709    2.103119   -2.811275
 H   -3.942992    4.190761   -1.331892
 H   -2.320392    4.484620   -1.919679
 H   -1.885258    5.219760    0.426475
 H   -2.092762    4.126697    1.798378
 H   -3.505162    4.734938    0.929402
 H   -1.054857    1.741747   -0.979069
 H   -0.311220    3.878747   -1.891801
 H    0.036060    4.509126   -0.296674
 H    2.100173    3.795239   -1.378418
 H    1.444405    2.200665   -1.730510
 H    2.471261    3.237928    2.339735
 H    2.858819    4.334502    1.011031
 H    1.193111    4.152757    1.543235
