43 
5m17_ligand_xtb.xyz
 C   -0.937015   -0.717950    1.045081
 C   -1.965002   -1.771158    0.603707
 C   -2.691287   -1.292518   -0.656398
 C   -3.267073    0.110681   -0.425033
 C   -2.131090    1.047842    0.003617
 C   -2.640186    2.446490    0.361814
 O   -2.865649   -1.986689    1.653186
 O   -3.718376   -2.213296   -0.937201
 O   -3.888796    0.511435   -1.621988
 O   -1.492067    0.560780    1.171013
 O   -3.169629    3.059317   -0.796384
 O    2.524862   -2.126658   -0.346115
 C    2.430675   -0.728500   -0.386738
 C    3.793776   -0.133045   -0.006709
 C    4.875156   -0.515532   -1.021976
 O    6.130787   -0.021388   -0.647220
 C    1.356217   -0.215088    0.584960
 O    0.120405   -0.763188    0.131678
 C    1.384572    1.312900    0.617218
 C    2.803707    1.770390    0.952968
 O    3.740990    1.280512    0.025203
 H   -0.594489   -0.961061    2.062371
 H   -1.421432   -2.699894    0.368289
 H   -1.975998   -1.244714   -1.490812
 H   -4.005502    0.057120    0.393157
 H   -1.411172    1.123951   -0.825449
 H   -3.405236    2.353533    1.143134
 H   -1.799567    3.023851    0.764305
 H   -3.623981   -2.448806    1.266598
 H   -4.283749   -1.802776   -1.603486
 H   -3.894248    1.479331   -1.646942
 H   -3.449533    3.954444   -0.578195
 H    1.628435   -2.474433   -0.434056
 H    2.161967   -0.390410   -1.400529
 H    4.076913   -0.519726    0.985598
 H    4.581525   -0.125579   -2.006913
 H    4.954839   -1.601719   -1.071487
 H    6.024388    0.921659   -0.470509
 H    1.567285   -0.611313    1.591390
 H    0.677820    1.688149    1.356789
 H    1.103763    1.691280   -0.367325
 H    2.882879    2.858253    0.904379
 H    3.070186    1.435191    1.967255
