40 
5m1z_ligand_xtb.xyz
 C    2.916184   -1.306261    0.479403
 C    2.972416   -0.316807   -0.713651
 C    1.661185    0.490520   -0.556409
 O    3.795294   -0.810410    1.450288
 O    1.102328    0.143850    0.672245
 O    2.649727    2.357484    0.556481
 C    1.441635   -1.210383    0.933895
 N    1.815249    1.961537   -0.488558
 O    2.940445   -0.904872   -1.977304
 C    0.521078   -2.183557    0.173174
 O   -0.837363   -1.936300    0.474883
 O   -0.600006    2.971659   -0.061312
 C   -1.823094    2.327689   -0.434012
 C   -1.855795    0.900114    0.088706
 O   -1.169764    0.015465   -0.785430
 C   -3.280435    0.330475    0.166295
 O   -3.879539    0.748673    1.351026
 C   -3.047810   -1.190727    0.043838
 O   -4.016560   -1.730920   -0.802211
 C   -1.602003   -1.294507   -0.507573
 H    3.175693   -2.322416    0.162416
 H    3.851050    0.329266   -0.574935
 H    0.990483    0.268184   -1.400339
 H    3.907275   -1.446302    2.165735
 H    2.422123    1.815083    1.338218
 H    1.314350   -1.348719    2.009993
 H    2.239540    2.339002   -1.345350
 H    0.812396    2.374608   -0.345929
 H    3.769554   -1.363403   -2.158666
 H    0.698728   -2.108771   -0.904865
 H    0.742211   -3.202330    0.506163
 H   -0.712446    3.925283   -0.157958
 H   -1.925550    2.320872   -1.524565
 H   -2.661693    2.861479    0.017989
 H   -1.410360    0.866446    1.092251
 H   -3.858631    0.641765   -0.716777
 H   -4.774863    0.393150    1.399248
 H   -3.060260   -1.651337    1.040286
 H   -3.970167   -2.693664   -0.794899
 H   -1.552842   -1.845313   -1.459443
