32 
5m2v_ligand_dft.xyz
 N   -1.574043    0.354953    0.906263
 C   -2.393975    0.142599   -0.335199
 C   -3.855353    0.217441    0.076873
 C    1.618691   -0.688588   -0.347740
 C    2.317295   -1.884775   -0.220861
 C    3.652444   -1.871063    0.168361
 C    3.615906    0.528249    0.261250
 O   -4.659308   -0.006132   -0.949056
 O   -4.197594    0.445506    1.213042
 C   -1.951879   -1.233046   -0.883795
 C   -0.901572   -0.941568    1.234003
 C   -0.632163   -1.490134   -0.163379
 O    0.324970   -0.666636   -0.810610
 C    4.305843   -0.665564    0.408432
 C    2.260148    0.534498   -0.093683
 C    1.547648    1.832458   -0.173240
 O    2.345428    2.834551   -0.514698
 O    0.363041    2.034883    0.072521
 H   -2.197733    0.682543    1.656162
 H   -0.827273    1.063199    0.695239
 H   -2.161559    0.948503   -1.034362
 H    1.833410   -2.825723   -0.460193
 H    4.187578   -2.810172    0.263771
 H    4.118360    1.473095    0.434247
 H   -5.582523    0.053881   -0.647107
 H   -2.677151   -2.011888   -0.633477
 H   -1.823106   -1.213469   -1.965741
 H   -1.592140   -1.572056    1.797878
 H   -0.003198   -0.749078    1.822425
 H   -0.344520   -2.544615   -0.156095
 H    5.350663   -0.655873    0.697678
 H    1.827001    3.656565   -0.489988
