34 
5m39_ligand_ani.xyz
 N    1.716512   -0.555311    0.057061
 C    1.344948    1.775835   -0.478059
 C   -1.549907    1.019672    0.095773
 C   -0.891500   -1.260350   -0.321432
 C    2.673467    2.064382   -0.503695
 C   -2.230536   -1.645345   -0.305016
 C   -3.232701   -0.710999   -0.087908
 C    3.831367   -2.497646    0.615628
 C   -4.932787   -2.343665   -0.226991
 C    0.893057    0.438616   -0.176681
 C    3.574200    0.999221   -0.215568
 C    4.066595   -1.068293    0.287263
 C   -3.616993    2.845430    0.597260
 C   -0.546347    0.070573   -0.136444
 C   -2.885670    0.648004    0.122009
 N    4.887553    0.900959   -0.142357
 N    5.182627   -0.390776    0.171745
 N    3.011087   -0.231852    0.053334
 O   -3.923208    1.494599    0.332914
 O   -4.555295   -0.995507   -0.053894
 H    0.620457    2.549840   -0.709215
 H   -1.276321    2.054379    0.280716
 H   -0.110051   -1.994812   -0.481480
 H    3.055752    3.051643   -0.726026
 H   -2.476934   -2.690020   -0.460311
 H    3.258651   -2.976901   -0.185756
 H    4.782494   -3.013834    0.752340
 H    3.230341   -2.581593    1.527513
 H   -4.626575   -2.722889   -1.211099
 H   -4.503236   -2.983452    0.555474
 H   -6.020863   -2.363119   -0.153847
 H   -3.026501    2.948859    1.516919
 H   -3.071962    3.304085   -0.238167
 H   -4.574846    3.351318    0.725450
