36 
5m4c_ligand_xtb.xyz
 C   -0.429608   -3.028822   -0.176166
 C   -0.044598   -1.686174    0.029365
 C   -1.084742   -0.844243    0.466413
 N   -2.328270   -1.297924    0.559183
 N   -1.672011   -3.477919   -0.060207
 O   -3.609508    2.795773   -1.712667
 C   -2.907305    2.660616   -0.571515
 O   -2.000805    3.394623   -0.316573
 C   -3.385245    1.531982    0.327524
 C   -2.447235    1.304055    1.501024
 S   -0.781983    0.805348    0.951575
 C   -2.559134   -2.572517    0.279452
 S    0.922687   -4.031172   -0.579637
 C    1.973490   -2.655870   -0.492521
 C    1.356026   -1.488141   -0.179875
 C    2.047106   -0.195556   -0.115997
 C    1.617339    0.868745   -0.904478
 C    2.272693    2.081674   -0.854515
 C    3.372571    2.265323   -0.023478
 C    4.069643    3.590134    0.019190
 C    3.806716    1.195992    0.748302
 C    3.156827   -0.023371    0.702025
 H   -4.313079    2.139806   -1.802414
 H   -3.469267    0.605400   -0.247321
 H   -4.379825    1.792147    0.703890
 H   -2.826705    0.520750    2.153928
 H   -2.283828    2.227301    2.054668
 H   -3.587372   -2.898975    0.357104
 H    3.015772   -2.792153   -0.706114
 H    0.773760    0.738801   -1.566127
 H    1.923767    2.901261   -1.464965
 H    4.534385    3.802467   -0.943418
 H    3.355952    4.385884    0.225443
 H    4.840805    3.602498    0.785215
 H    4.662855    1.317680    1.396717
 H    3.498733   -0.844902    1.314975
