36 
5m4c_ligand_dft.xyz
 C    0.979600   -2.942571   -0.166259
 C    0.717763   -1.574443    0.029079
 C   -0.603804   -1.289511    0.450791
 N   -1.499147   -2.265320    0.572978
 N    0.094050   -3.933535   -0.035042
 O   -4.636316    1.057120   -1.701114
 C   -4.010396    1.198786   -0.512306
 O   -3.696272    2.289943   -0.119955
 C   -3.798144   -0.088867    0.269489
 C   -2.806082    0.079616    1.411101
 S   -1.096312    0.358146    0.854190
 C   -1.110403   -3.522896    0.318489
 S    2.643205   -3.230574   -0.585880
 C    2.966786   -1.525901   -0.510998
 C    1.893532   -0.756862   -0.191870
 C    1.973399    0.722988   -0.120198
 C    1.293659    1.521272   -1.045434
 C    1.391250    2.904106   -0.988530
 C    2.170675    3.532771   -0.012960
 C    2.241918    5.036993    0.058490
 C    2.858020    2.730968    0.898337
 C    2.762292    1.343925    0.848477
 H   -4.803203    0.122483   -1.880995
 H   -3.472777   -0.902633   -0.387433
 H   -4.773813   -0.386185    0.679746
 H   -2.822222   -0.795661    2.061306
 H   -3.049695    0.972222    1.991600
 H   -1.876066   -4.286846    0.426287
 H    3.959157   -1.159381   -0.738954
 H    0.683132    1.052823   -1.812068
 H    0.850494    3.507824   -1.712870
 H    2.369779    5.476559   -0.936135
 H    1.318920    5.450137    0.481737
 H    3.073920    5.369363    0.686188
 H    3.473619    3.196612    1.663854
 H    3.294466    0.734755    1.573576
