55 
5m53_ligand_xtb.xyz
 C   35.475229   -4.021875   12.301111
 C   34.561229   -5.017695   11.871112
 C   33.301880   -5.039807   12.469443
 C   36.452747   -5.155611   10.800653
 N   33.031504   -4.145130   13.399931
 N   33.689059   -2.367661   14.758715
 N   35.187675   -3.139402   13.252658
 C   29.953054   -7.081402   10.915896
 C   29.070011   -8.281382   10.585934
 C   27.767241   -8.223343   11.378335
 C   28.054183   -8.157748   12.875909
 C   28.934202   -6.954346   13.197187
 C   30.246223   -7.031830   12.415482
 C   31.124830   -5.841662   12.781936
 O   32.383358   -5.941707   12.115295
 N   35.226942   -5.729076   10.904638
 N   36.639155   -4.149219   11.601504
 C   33.969166   -3.259159   13.764378
 C   32.614818   -2.303516   15.628827
 C   31.448454   -3.039971   15.442039
 C   32.704494   -1.465978   16.743391
 C   31.667292   -1.400281   17.653948
 C   30.517051   -2.151198   17.475083
 C   30.407032   -2.965867   16.353181
 C   29.240424   -3.876243   16.130227
 O   29.399171   -5.083865   16.051405
 N   28.018722   -3.304376   16.017259
 C   26.856204   -4.145152   15.853388
 C   27.767178   -1.887792   15.961674
 H   37.195048   -5.511813   10.112563
 H   34.480894   -1.774791   14.970993
 H   30.890637   -7.140695   10.360321
 H   29.443342   -6.161557   10.618578
 H   28.853940   -8.299572    9.515366
 H   29.603020   -9.201910   10.834989
 H   27.202402   -7.336997   11.079879
 H   27.156384   -9.100133   11.152864
 H   27.116962   -8.090661   13.431855
 H   28.562488   -9.072555   13.188162
 H   29.139567   -6.901986   14.267245
 H   28.409096   -6.037259   12.918926
 H   30.779253   -7.945580   12.698324
 H   31.289167   -5.817750   13.863917
 H   30.644948   -4.901347   12.484765
 H   34.865079   -6.515827   10.392361
 H   31.362570   -3.684242   14.587544
 H   33.599101   -0.880153   16.899896
 H   31.759741   -0.761351   18.519937
 H   29.722627   -2.115269   18.205264
 H   27.177799   -5.182542   15.920033
 H   26.125717   -3.935342   16.637749
 H   26.390513   -3.972479   14.879786
 H   28.701145   -1.336589   15.890302
 H   27.156044   -1.661361   15.083578
 H   27.222986   -1.555944   16.851265
