43 
5m55_ligand_dft.xyz
 C   28.660432   10.564609  -22.052480
 C   25.471015    7.951158  -20.241170
 C   26.660785    9.210146  -22.088395
 C   27.785343    9.695802  -21.407559
 C   26.820475   12.634061  -19.558468
 C   26.369322   11.561875  -18.575074
 N   27.364433   11.234285  -17.549797
 C   28.104982   12.349475  -16.961037
 C   27.240930   13.275503  -16.105526
 C   27.233655   10.126888  -16.770538
 C   26.551335    8.951391  -16.885014
 C   25.848747    8.315927  -17.983354
 N   26.118729    8.608077  -19.262503
 N   25.743610    8.305112  -21.546847
 C   28.449295   10.964416  -23.367911
 C   27.335960   10.475653  -24.046475
 C   26.450937    9.612547  -23.415934
 N   24.563144    6.981599  -20.119555
 C   24.288371    6.675437  -18.848837
 C   24.900039    7.311772  -17.759119
 N   24.339195    6.723657  -16.640572
 C   23.449378    5.801507  -17.108299
 N   23.383147    5.729171  -18.412755
 H   29.529850   10.925884  -21.509225
 H   27.961754    9.397357  -20.383506
 H   26.083510   12.697291  -20.364186
 H   26.905653   13.628374  -19.107172
 H   27.777362   12.367307  -20.016191
 H   25.431646   11.866073  -18.084396
 H   26.167774   10.647086  -19.131509
 H   28.918805   11.932414  -16.360662
 H   28.581727   12.913381  -17.766863
 H   27.848576   14.080767  -15.680272
 H   26.441223   13.732389  -16.697130
 H   26.777813   12.721395  -15.281926
 H   27.784554   10.225329  -15.836028
 H   26.614272    8.332915  -15.992541
 H   25.144035    7.823816  -22.200968
 H   29.141386   11.641615  -23.858380
 H   27.148614   10.770314  -25.075062
 H   25.579832    9.244256  -23.952925
 H   24.500448    6.968804  -15.677790
 H   22.863908    5.195165  -16.429050
