50 
5m57_ligand_xtb.xyz
 C    7.482287   43.715353   49.950528
 C   10.139170   46.757361   51.537666
 C    4.744291   45.324367   52.344827
 C    3.926719   46.058647   53.404603
 C    4.516197   45.832225   54.797118
 C    3.696704   46.567323   55.852811
 C    2.243254   46.105204   55.815892
 C    1.650475   46.327923   54.428010
 C    2.470312   45.594884   53.369761
 C    4.748876   40.154515   47.974480
 C    3.596270   40.545157   48.628528
 C    3.594312   41.632637   49.479573
 C    4.757354   42.348217   49.685431
 N    1.470573   40.519122   47.014179
 N    6.584615   44.288328   50.756236
 C    6.933095   45.326811   51.504414
 O    6.049204   45.890514   52.308343
 C    8.249524   45.809363   51.427318
 N    8.945963   46.826799   52.028526
 N   10.304254   45.743218   50.627744
 C    9.099825   45.117824   50.539476
 N    8.755912   44.075472   49.792884
 N    7.128303   42.642284   49.183836
 C    5.933556   41.972071   49.031313
 C    5.914923   40.863929   48.173871
 S    2.086880   39.660870   48.333680
 O    1.186459   39.851433   49.434373
 O    2.380863   38.329353   47.887069
 H   10.939010   47.420017   51.803178
 H    4.281324   45.426008   51.355498
 H    4.819748   44.256502   52.581876
 H    3.969325   47.128726   53.177693
 H    5.549792   46.180485   54.811617
 H    4.514692   44.761846   55.017704
 H    3.740661   47.641896   55.662659
 H    4.120571   46.385494   56.842286
 H    1.659302   46.649550   56.560753
 H    2.194322   45.042458   56.063497
 H    0.617459   45.975588   54.402794
 H    1.645392   47.397147   54.204735
 H    2.430588   44.519813   53.559739
 H    2.045003   45.775285   52.380057
 H    4.714362   39.291653   47.329268
 H    2.677005   41.896924   49.980732
 H    4.782168   43.197467   50.344566
 H    0.587354   40.949669   47.235058
 H    1.397313   39.935239   46.196938
 H   11.137808   45.498675   50.120984
 H    7.908585   42.294931   48.640978
 H    6.823048   40.566421   47.669898
