44 
5m6u_ligand_ani.xyz
 N    3.266354   -0.913256    0.157904
 N    2.126255   -1.189650    0.839234
 C    1.220228   -0.258292    0.809780
 N    1.294278    0.902352    0.031184
 C    2.455231    1.225071   -0.696360
 C    3.498063    0.225571   -0.586594
 C    4.769450    0.128574   -1.112782
 C    5.307644   -1.103582   -0.666957
 C    4.357580   -1.725794    0.114263
 O    2.531483    2.245168   -1.346415
 C    0.155745    1.785448   -0.148911
 C   -0.015453    2.870844    0.703145
 C   -1.154120    3.663570    0.581695
 C   -2.105835    3.374365   -0.391645
 C   -1.915905    2.299099   -1.258119
 C   -0.769099    1.515517   -1.152883
 C   -0.005682   -0.504684    1.672506
 N   -0.555605   -1.825425    1.331953
 C   -1.434092   -1.927461    0.282900
 N   -1.203284   -2.883785   -0.625520
 C   -2.017759   -2.891958   -1.672832
 N   -3.036861   -2.077041   -1.928142
 C   -3.298468   -1.158677   -0.996817
 C   -2.555765   -1.089695    0.201128
 C   -3.037075   -0.307491    1.301605
 N   -3.465925    0.317560    2.182512
 N   -4.282275   -0.249018   -1.264184
 C    0.305715   -0.452631    3.166524
 H    5.244169    0.868353   -1.745387
 H    6.287589   -1.495782   -0.893362
 H    4.344030   -2.662475    0.651300
 H    0.735304    3.068921    1.464857
 H   -1.297453    4.507495    1.251904
 H   -2.994122    3.997545   -0.477864
 H   -2.664760    2.067196   -2.012588
 H   -0.570615    0.699136   -1.845057
 H   -0.761869    0.245607    1.466284
 H    0.187524   -2.512191    1.227296
 H   -1.817593   -3.652399   -2.424594
 H   -4.900618   -0.525738   -2.014403
 H   -4.723847    0.177601   -0.461775
 H    0.701135    0.531682    3.446146
 H   -0.618310   -0.633653    3.723675
 H    1.034587   -1.221554    3.442418
