46 
5m7t_ligand_dft.xyz
 O    3.433751    3.554532    0.257953
 C    2.270926    3.413583   -0.119240
 C    1.439326    4.611518   -0.522210
 N    1.652176    2.213935   -0.201477
 C    2.162542    0.961371    0.351102
 C    3.509550    0.488564   -0.222313
 O    4.613497    1.154142    0.325304
 C    3.733214   -0.978932    0.148642
 O    5.002970   -1.393680   -0.285829
 C    2.714996   -1.909565   -0.502549
 C    2.827727   -3.330439    0.034396
 O    2.468365   -3.316166    1.396114
 C    1.102643   -0.069611    0.073992
 N    1.378295   -1.354642   -0.286953
 C    0.175603   -1.976313   -0.489353
 C   -0.778817   -1.027675   -0.245668
 N   -0.188926    0.163386    0.104517
 C   -2.244940   -1.220550   -0.333872
 O   -2.728938   -2.280657   -0.701753
 N   -2.943494   -0.103710    0.034173
 C   -4.332866    0.090667    0.088052
 C   -5.256753   -0.873813   -0.327827
 C   -6.617257   -0.594679   -0.243198
 C   -7.076467    0.624224    0.245769
 C   -6.152338    1.580680    0.657768
 C   -4.791516    1.318282    0.580095
 H    2.045523    5.259109   -1.158661
 H    0.517190    4.345855   -1.045236
 H    1.184366    5.176505    0.379728
 H    0.664089    2.190193   -0.419359
 H    2.298971    1.073389    1.436634
 H    3.478724    0.587867   -1.320940
 H    4.409630    2.114179    0.328045
 H    3.642377   -1.070100    1.242155
 H    5.600838   -0.669581   -0.044489
 H    2.915866   -1.932862   -1.580513
 H    3.867616   -3.643967   -0.122750
 H    2.179089   -4.002379   -0.548200
 H    2.694964   -4.169443    1.780930
 H    0.081463   -3.011994   -0.771643
 H   -2.362509    0.671195    0.329414
 H   -4.901571   -1.822559   -0.705462
 H   -7.327452   -1.349594   -0.567898
 H   -8.141116    0.826409    0.308182
 H   -6.490144    2.537474    1.045129
 H   -4.074869    2.068288    0.907289
