53 
5m7u_ligand_xtb.xyz
 C   -1.797538    0.407879   -0.353420
 C    3.937916   -2.218046   -1.096384
 C   -2.921624    0.730675    0.690941
 C   -3.098502   -0.598954    1.455627
 C    0.556188   -3.257435    0.266176
 C   -2.714896   -1.671337    0.436887
 C   -3.785759   -2.012745   -0.601365
 C   -0.850260   -1.739423   -1.258213
 C   -0.421542   -3.166577   -0.916976
 C    1.805715   -2.461693    0.009335
 C    2.803886   -2.961333   -0.820946
 N    0.148751    3.378912   -1.210813
 N   -1.478584   -1.042818   -0.122009
 C   -0.559588    1.288058   -0.205936
 C    0.049921    4.761447   -1.626311
 C   -0.872479    2.727846   -0.654070
 O   -1.979963    3.210949   -0.491701
 O   -2.589238    1.707574    1.618608
 O   -2.137710   -0.694830    2.476725
 O   -3.977545   -0.944675   -1.496491
 C    4.085482   -0.946771   -0.567455
 C    3.092988   -0.445672    0.262410
 C    3.193394    0.963035    0.771626
 F    4.422198    1.336835    1.101677
 F    2.393457    1.199705    1.822174
 F    2.768460    1.834018   -0.189673
 C    1.964788   -1.198184    0.559748
 H   -2.208752    0.497826   -1.359986
 H    4.709787   -2.626074   -1.728857
 H   -3.838474    0.988505    0.150874
 H   -4.112500   -0.717189    1.851079
 H    0.081412   -2.924729    1.191986
 H    0.819844   -4.307370    0.399763
 H   -2.444237   -2.586066    0.969530
 H   -4.703800   -2.242247   -0.047447
 H   -3.490114   -2.918223   -1.150783
 H   -1.561021   -1.739619   -2.086086
 H    0.028993   -1.166260   -1.559603
 H   -1.291069   -3.790421   -0.709606
 H    0.064009   -3.572848   -1.805450
 H    2.696137   -3.948407   -1.244596
 H    1.064001    2.959293   -1.259380
 H   -0.826048   -1.056888    0.676084
 H   -0.260902    1.341736    0.845432
 H    0.268852    0.897655   -0.797114
 H   -0.979649    5.084353   -1.487110
 H    0.323063    4.855955   -2.676843
 H    0.710614    5.387180   -1.026349
 H   -2.556243    2.557705    1.139004
 H   -2.171586    0.130020    2.984521
 H   -4.798973   -1.071553   -1.983678
 H    4.960062   -0.354079   -0.783704
 H    1.235490   -0.802705    1.253294
