51 
5mae_ligand_xtb.xyz
 C   -3.497005    1.369679   -0.411240
 C   -3.928912   -2.890784   -0.604200
 C   -3.285714   -3.183991   -1.797639
 C   -1.627536   -0.589604    1.014149
 C   -2.215773   -1.525590   -0.007605
 C   -1.568544   -1.838153   -1.204258
 C    2.699077   -2.130460    0.377275
 C    3.496864   -2.214874    1.684715
 C    5.139063   -0.788354    0.847748
 C    4.396180   -0.648222   -0.486803
 O    4.875082   -2.036468    1.449689
 N    2.986106   -0.868318   -0.262980
 N    3.138382    3.912009   -1.677691
 C    1.987048    3.593449   -1.290434
 N   -2.103620   -2.659032   -2.089883
 N   -3.394266   -2.066028    0.283648
 C   -4.574043    1.077989    0.629709
 C   -4.289320    2.108890    1.719759
 C   -2.760750    2.200824    1.781362
 C   -2.243866    1.765569    0.391718
 N   -1.261023    0.700709    0.474106
 N    0.856218   -0.114064    0.133839
 C   -0.002392    0.906449    0.053667
 N    0.322910    2.125607   -0.408995
 C    1.581619    2.266072   -0.784953
 N    2.515982    1.328487   -0.742460
 C    2.100337    0.140333   -0.275340
 H   -3.802653    2.215593   -1.027906
 H   -3.304046    0.526897   -1.072858
 H   -4.888916   -3.315418   -0.344707
 H   -3.711383   -3.849538   -2.535158
 H   -0.717553   -1.042771    1.420520
 H   -2.358292   -0.460999    1.814045
 H   -0.601296   -1.421261   -1.446226
 H    1.628490   -2.194443    0.565203
 H    3.010719   -2.938571   -0.293042
 H    3.390465   -3.198693    2.144128
 H    3.131080   -1.444227    2.381356
 H    4.830074    0.026306    1.520927
 H    6.218715   -0.744827    0.698555
 H    4.758810   -1.406043   -1.189304
 H    4.533435    0.346870   -0.906537
 H    3.803814    3.138688   -1.614896
 H    1.200666    4.340131   -1.315537
 H   -4.466362    0.063553    1.014769
 H   -5.578032    1.179317    0.219765
 H   -4.722924    1.831365    2.679313
 H   -4.705704    3.073199    1.425207
 H   -2.364360    1.540285    2.552267
 H   -2.430353    3.210245    2.020227
 H   -1.717882    2.585159   -0.100504
