56 
5maj_ligand_dft.xyz
 C   -4.701080    0.954165   -0.092365
 C   -2.805503   -3.346336    1.617513
 C   -2.933404    1.832160   -1.511842
 C    2.014688   -2.207722    0.898709
 C    1.809081    0.591327   -1.088219
 C   -4.608040    2.234615    0.733601
 C    3.476012   -2.706962    0.951843
 C   -2.908516    3.078448   -0.630623
 C   -0.654167   -1.452746   -0.590002
 N    0.594373   -1.554979   -1.103334
 O   -4.172332    3.325499   -0.053751
 N   -3.417784    0.705358   -0.731036
 N   -3.957221   -3.366448    2.146755
 C    1.113097   -0.454468   -1.911468
 C    2.782505   -2.828196   -1.340482
 C    3.651005   -3.561513   -0.315404
 C    1.509953   -2.551631   -0.530612
 N   -1.397106   -0.388061   -0.927478
 N   -1.071715   -2.440482    0.238864
 C   -2.303490   -2.279556    0.694914
 N   -3.136524   -1.277014    0.430932
 C   -2.627345   -0.348418   -0.402145
 N    3.165341    0.596577   -0.948236
 C    3.426582    1.588627   -0.108530
 N    2.252903    2.226315    0.297023
 C    1.217586    1.581760   -0.337827
 C    2.257304    3.285624    1.167970
 C    3.441016    3.736626    1.661398
 C    4.663262    3.114917    1.274968
 C    4.658132    2.061386    0.405488
 H   -5.463756    1.075382   -0.872135
 H   -4.962153    0.100232    0.530806
 H   -2.094581   -4.148273    1.823976
 H   -1.942705    1.600444   -1.900992
 H   -3.618330    1.996513   -2.353489
 H    1.955936   -1.129437    1.071944
 H    1.375799   -2.690900    1.642413
 H   -3.915026    2.073445    1.575894
 H   -5.587389    2.511169    1.131975
 H    3.703527   -3.259792    1.867946
 H    4.158209   -1.851372    0.903148
 H   -2.654048    3.964366   -1.218361
 H   -2.149766    2.948337    0.161209
 H   -4.469597   -2.534017    1.828907
 H    1.812113   -0.856174   -2.645223
 H    0.271937   -0.019106   -2.448583
 H    2.586132   -3.401868   -2.251978
 H    3.290324   -1.896501   -1.609627
 H    3.268733   -4.577000   -0.150123
 H    4.694737   -3.647719   -0.631160
 H    0.939442   -3.481275   -0.476471
 H    0.183638    1.850373   -0.189027
 H    1.290870    3.706763    1.416690
 H    3.440993    4.572470    2.350830
 H    5.599568    3.485861    1.677882
 H    5.566101    1.562588    0.087822
