56 
5maj_ligand_xtb.xyz
 C   -4.711451    1.152752   -0.146942
 C   -3.052048   -3.213642    1.475976
 C   -2.870118    2.028099   -1.440666
 C    1.757717   -2.277473    0.932993
 C    1.876400    0.509665   -1.065420
 C   -4.556432    2.346188    0.803411
 C    3.181574   -2.842161    1.046759
 C   -2.777306    3.188918   -0.442519
 C   -0.759216   -1.348512   -0.585660
 N    0.483795   -1.489855   -1.067008
 O   -4.033176    3.470938    0.130347
 N   -3.439286    0.881088   -0.774198
 N   -4.215033   -3.226276    1.950756
 C    1.051743   -0.432942   -1.880801
 C    2.608463   -2.837237   -1.268717
 C    3.392882   -3.643109   -0.239097
 C    1.307435   -2.553723   -0.520697
 N   -1.456939   -0.260581   -0.928505
 N   -1.238357   -2.327923    0.203391
 C   -2.479233   -2.156567    0.618288
 N   -3.258096   -1.118251    0.345741
 C   -2.693077   -0.186820   -0.438344
 N    3.224902    0.438239   -1.031257
 C    3.621547    1.376165   -0.190031
 N    2.523107    2.066133    0.332225
 C    1.419899    1.507955   -0.230015
 C    2.671053    3.078786    1.217534
 C    3.920208    3.439518    1.619394
 C    5.053501    2.765153    1.117904
 C    4.909483    1.743530    0.221608
 H   -5.439232    1.399270   -0.927548
 H   -5.030481    0.263595    0.394490
 H   -2.386881   -4.041365    1.697680
 H   -1.885699    1.757821   -1.820329
 H   -3.527341    2.313370   -2.269168
 H    1.745865   -1.204697    1.126506
 H    1.070292   -2.747115    1.634196
 H   -3.890540    2.063524    1.633755
 H   -5.523033    2.654195    1.203896
 H    3.310964   -3.454216    1.938204
 H    3.903887   -2.026215    1.086797
 H   -2.454962    4.105736   -0.938893
 H   -2.057171    2.928949    0.350124
 H   -4.758452   -2.403838    1.679882
 H    1.666765   -0.873872   -2.665966
 H    0.211385    0.103076   -2.326222
 H    2.446528   -3.375934   -2.201413
 H    3.144757   -1.909557   -1.465257
 H    2.966324   -4.642503   -0.137452
 H    4.445627   -3.740769   -0.499030
 H    0.681545   -3.452247   -0.527869
 H    0.422826    1.831883   -0.015226
 H    1.770498    3.560167    1.568572
 H    4.041068    4.245401    2.324456
 H    6.034333    3.066437    1.450062
 H    5.749734    1.206133   -0.184785
