56 
5maj_ligand_ani.xyz
 C   -4.669832    0.657591    0.095656
 C   -2.520503   -3.504543    1.697577
 C   -3.014419    1.589640   -1.458872
 C    2.245387   -2.579483    0.730617
 C    1.847502    0.799671   -0.898418
 C   -5.118581    2.086175    0.372042
 C    3.464078   -3.529383    0.644758
 C   -3.540005    2.970066   -1.095641
 C   -0.469882   -1.415301   -0.411654
 N    0.759222   -1.442440   -0.996992
 O   -4.909550    2.915652   -0.752158
 N   -3.287272    0.675991   -0.357056
 N   -3.650097   -3.582128    2.260596
 C    1.214276   -0.270848   -1.743417
 C    2.913617   -2.653952   -1.563910
 C    3.740402   -3.739780   -0.866552
 C    1.654812   -2.561258   -0.695206
 N   -1.241006   -0.341419   -0.642013
 N   -0.845856   -2.469338    0.340115
 C   -2.072837   -2.371212    0.844567
 N   -2.937692   -1.376568    0.666797
 C   -2.469588   -0.381188   -0.112903
 N    3.200888    0.953360   -0.829711
 C    3.398022    1.982566   -0.010000
 N    2.192055    2.487101    0.461422
 C    1.202568    1.719379   -0.108084
 C    2.111843    3.550967    1.327496
 C    3.255614    4.147784    1.750088
 C    4.522658    3.659766    1.290172
 C    4.598232    2.603338    0.431371
 H   -5.317213    0.205822   -0.670525
 H   -4.738928    0.050416    0.999336
 H   -1.786070   -4.304097    1.820143
 H   -1.938254    1.623397   -1.641007
 H   -3.505744    1.238741   -2.378965
 H    2.574551   -1.567945    0.991989
 H    1.504506   -2.895563    1.470086
 H   -4.574391    2.482942    1.243702
 H   -6.190229    2.115091    0.591573
 H    3.265539   -4.487293    1.137385
 H    4.326466   -3.084716    1.152574
 H   -3.454077    3.649377   -1.948985
 H   -2.954769    3.385063   -0.260109
 H   -4.194901   -2.739314    2.026672
 H    1.940616   -0.597120   -2.492443
 H    0.352082    0.130548   -2.286474
 H    2.685508   -2.880605   -2.613184
 H    3.466003   -1.707057   -1.519935
 H    3.396190   -4.733009   -1.179834
 H    4.806372   -3.680549   -1.111346
 H    1.072810   -3.481337   -0.834353
 H    0.156775    1.862310    0.123153
 H    1.110927    3.850134    1.621069
 H    3.205585    4.990112    2.433202
 H    5.432979    4.144341    1.635843
 H    5.542171    2.213213    0.067460
