65 
5mat_ligand_ani.xyz
 C    3.678691    2.049389    1.171400
 C    2.961414    2.176732    2.332734
 C    2.325772    1.049855    2.887077
 C    2.396125   -0.172759    2.263884
 C    3.130892   -0.345527    1.055166
 C    3.797332    0.794781    0.523033
 C    3.213570   -1.602827    0.367656
 C    4.004049   -1.683594   -0.752679
 C    4.694688   -0.576117   -1.280805
 C    4.585217    0.648192   -0.666119
 C    2.433419   -2.834466    0.803110
 C    0.992633   -3.361819   -1.118696
 C    6.001542    1.674339   -2.259758
 C   -0.028787   -2.493831    0.904397
 C   -1.214142   -2.356375    0.076918
 C   -1.156674   -2.769131   -1.241194
 C   -2.474359   -1.783038    0.428066
 C   -3.340710   -1.768772   -0.622331
 C   -4.732761   -1.218470   -0.564071
 C   -4.738117   -0.082217    0.459450
 C   -4.237696   -0.623147    1.810792
 C   -2.795458   -1.147026    1.755383
 C   -3.350278    2.085560    0.703545
 C   -2.242526    2.811518    0.005747
 C   -2.354381    3.979859   -0.806452
 C   -0.913983    2.511813   -0.052264
 C   -0.110005    1.428227    0.564948
 C   -3.593803    4.754988   -1.108598
 N    1.096247   -2.943078    0.178490
 N   -0.076952   -3.311136   -1.856598
 N   -3.853132    0.976198   -0.133178
 N   -1.197695    4.335947   -1.301443
 O    5.193703    1.778877   -1.104521
 O   -0.286777    3.411637   -0.823458
 O    0.043213   -2.243179    2.096358
 S   -2.664462   -2.492191   -2.055558
 H    4.169281    2.908359    0.727427
 H    2.879598    3.143390    2.822513
 H    1.740551    1.154998    3.798431
 H    1.856154   -1.007995    2.692241
 H    4.113784   -2.637783   -1.268237
 H    5.300727   -0.710410   -2.169484
 H    2.998011   -3.730562    0.520374
 H    2.275623   -2.884253    1.880256
 H    1.904177   -3.782245   -1.544473
 H    6.397097    2.674306   -2.439740
 H    5.414928    1.350404   -3.128873
 H    6.832346    0.974302   -2.103732
 H   -5.435191   -2.004704   -0.261806
 H   -5.058691   -0.862244   -1.547007
 H   -5.750786    0.314602    0.578455
 H   -4.350082    0.138169    2.590154
 H   -4.912619   -1.442397    2.083250
 H   -2.078802   -0.333180    1.919291
 H   -2.594316   -1.857106    2.563585
 H   -2.994664    1.686277    1.655323
 H   -4.166150    2.776102    0.944350
 H   -0.568514    0.455592    0.362552
 H   -0.073871    1.552058    1.652903
 H    0.916768    1.416666    0.191665
 H   -4.044733    5.144021   -0.188956
 H   -4.339047    4.115229   -1.594980
 H   -3.362791    5.593025   -1.768991
 H   -3.049702    0.453432   -0.544377
 H   -4.358081    1.415983   -0.933142
