65 
5mat_ligand_xtb.xyz
 C    4.084068    2.638761    0.062367
 C    2.972584    3.201838    0.625305
 C    2.050550    2.392929    1.300421
 C    2.240661    1.039839    1.387187
 C    3.377033    0.424366    0.819020
 C    4.316859    1.252755    0.151677
 C    3.628492   -0.972348    0.905622
 C    4.780760   -1.480152    0.362421
 C    5.717996   -0.672577   -0.289444
 C    5.498122    0.679260   -0.411479
 C    2.644941   -1.910063    1.552913
 C    1.707101   -2.629934   -0.567408
 C    7.526607    1.061538   -1.591527
 C    0.209469   -1.895844    1.165075
 C   -0.824433   -2.234557    0.216307
 C   -0.468523   -2.673535   -1.050682
 C   -2.232727   -2.119239    0.379149
 C   -2.900055   -2.444871   -0.765390
 C   -4.383000   -2.309834   -0.918163
 C   -4.852077   -1.245150    0.080452
 C   -4.436579   -1.658745    1.491761
 C   -2.912062   -1.710409    1.649033
 C   -4.377627    1.240012    0.535047
 C   -3.575140    2.370632   -0.011019
 C   -4.032723    3.665905   -0.405942
 C   -2.217640    2.414432   -0.245877
 C   -1.128600    1.419110   -0.078571
 C   -5.412198    4.202264   -0.363096
 N    1.495648   -2.164524    0.680203
 N    0.797646   -2.874998   -1.449587
 N   -4.175117    0.032146   -0.313232
 N   -3.023070    4.372810   -0.828561
 O    6.326646    1.546359   -1.032769
 O   -1.912496    3.615076   -0.738074
 O    0.020991   -1.395268    2.257578
 S   -1.843946   -2.919117   -2.073405
 H    4.812483    3.244548   -0.452033
 H    2.805528    4.266177    0.562515
 H    1.190541    2.849382    1.770386
 H    1.517896    0.443081    1.921037
 H    4.992250   -2.537559    0.442892
 H    6.605666   -1.135089   -0.688261
 H    3.129983   -2.867087    1.764229
 H    2.245568   -1.507835    2.486212
 H    2.735945   -2.794687   -0.854023
 H    8.022378    1.930577   -2.020089
 H    7.333059    0.329077   -2.380890
 H    8.171501    0.616570   -0.828304
 H   -4.885532   -3.255237   -0.702325
 H   -4.639171   -2.042831   -1.945870
 H   -5.933164   -1.095405    0.022870
 H   -4.871989   -0.997874    2.240899
 H   -4.853728   -2.649966    1.667809
 H   -2.502241   -0.755732    1.989098
 H   -2.646917   -2.425367    2.429949
 H   -4.062892    1.004084    1.553144
 H   -5.437653    1.499703    0.543905
 H   -1.122871    0.693723   -0.894027
 H   -1.212790    0.895539    0.871891
 H   -0.171910    1.936587   -0.100118
 H   -5.783574    4.212548    0.660158
 H   -6.083798    3.598089   -0.971276
 H   -5.406672    5.217549   -0.746008
 H   -3.164877   -0.197378   -0.318632
 H   -4.437916    0.265035   -1.277259
