37 
5may_ligand_dft.xyz
 C    1.318831    0.224213    0.097413
 C    2.277318    1.261812   -0.480304
 O    1.638733    2.514318   -0.505358
 C    3.559347    1.315472    0.354284
 O    4.488655    2.189015   -0.250258
 C    4.148271   -0.086039    0.541600
 O    4.674431   -0.540123   -0.697641
 C    3.072352   -1.035163    1.079679
 C    3.546408   -2.466458    1.240753
 O    1.979981   -1.035247    0.162619
 O   -2.254953   -0.999049   -2.234010
 S   -2.265334   -1.243845   -0.800195
 O   -2.705848   -2.515700   -0.255908
 N   -0.762900   -0.977941   -0.132736
 C    0.079522    0.038320   -0.754564
 C   -3.199062    0.069623   -0.089386
 C   -3.671572    1.151988   -0.776731
 C   -4.388652    2.045524    0.065862
 C   -4.436667    1.612166    1.359935
 S   -3.620676    0.115149    1.585332
 H    1.015204    0.532322    1.109996
 H    2.543864    0.945116   -1.504288
 H    2.331522    3.161932   -0.698481
 H    3.309543    1.747028    1.331253
 H    4.935396    1.654561   -0.925926
 H    4.994861   -0.037016    1.233650
 H    3.927900   -0.905038   -1.195622
 H    2.722755   -0.647539    2.050302
 H    4.349231   -2.513470    1.982503
 H    2.721042   -3.099348    1.576406
 H    3.931160   -2.858781    0.295927
 H   -0.287614   -1.866417    0.005646
 H    0.361506   -0.228367   -1.781495
 H   -0.466357    0.985413   -0.784734
 H   -3.510673    1.284074   -1.839466
 H   -4.848133    2.964389   -0.276834
 H   -4.919329    2.091410    2.201317
