37 
5may_ligand_xtb.xyz
 C    1.349962    0.191474    0.317518
 C    2.188738    1.325549   -0.289656
 O    1.524103    2.543750   -0.079825
 C    3.590896    1.351132    0.352583
 O    4.407349    2.286243   -0.305365
 C    4.210069   -0.058661    0.305742
 O    4.458317   -0.416724   -1.032996
 C    3.244854   -1.053374    0.970766
 C    3.792555   -2.473613    0.969314
 O    2.031391   -1.043102    0.235679
 O   -1.942866   -1.296835   -2.032558
 S   -2.190088   -1.333236   -0.619612
 O   -2.722764   -2.525352   -0.036720
 N   -0.811084   -0.934454    0.244201
 C    0.024868    0.040947   -0.421424
 C   -3.214374    0.040711   -0.205017
 C   -3.568115    1.087199   -0.999424
 C   -4.360018    2.032172   -0.313185
 C   -4.578409    1.677328    0.981947
 S   -3.827764    0.183782    1.388930
 H    1.147487    0.436969    1.371851
 H    2.302968    1.145334   -1.373201
 H    2.172610    3.249080   -0.211801
 H    3.497635    1.691322    1.390278
 H    4.795055    1.837466   -1.071008
 H    5.180355   -0.049489    0.812928
 H    3.646498   -0.817390   -1.375969
 H    3.049632   -0.723460    2.003512
 H    4.662551   -2.531559    1.616519
 H    3.030011   -3.158465    1.327842
 H    4.079892   -2.765188   -0.037251
 H   -0.291480   -1.771343    0.472472
 H    0.213157   -0.253599   -1.461826
 H   -0.494719    1.001080   -0.413485
 H   -3.271642    1.155148   -2.029535
 H   -4.745077    2.928849   -0.763358
 H   -5.142097    2.208687    1.722814
