37 
5may_ligand_ani.xyz
 C    1.310505    0.293573    0.169426
 C    2.250585    1.293883   -0.486902
 O    1.661136    2.573363   -0.432331
 C    3.607687    1.317161    0.215756
 O    4.507057    2.125819   -0.513331
 C    4.145708   -0.099460    0.383312
 O    4.469845   -0.627294   -0.897668
 C    3.105174   -0.964561    1.090000
 C    3.569673   -2.392109    1.311240
 O    1.934279   -0.986093    0.275068
 O   -2.147504   -1.251056   -2.090208
 S   -2.228393   -1.335216   -0.640528
 O   -2.652880   -2.556279    0.015043
 N   -0.783166   -0.917412    0.054148
 C    0.024103    0.091174   -0.628154
 C   -3.223608    0.002738   -0.095290
 C   -4.117314    0.667360   -0.879368
 C   -4.816633    1.670394   -0.152247
 C   -4.425899    1.732306    1.153495
 S   -3.200363    0.583016    1.523303
 H    1.048693    0.655135    1.177499
 H    2.413184    0.986884   -1.536372
 H    2.337464    3.186358   -0.755094
 H    3.476596    1.780270    1.202506
 H    4.850993    1.549020   -1.214383
 H    5.081546   -0.068278    0.953038
 H    3.644259   -0.987340   -1.258060
 H    2.853589   -0.504095    2.059736
 H    4.416827   -2.410055    2.006042
 H    2.760483   -2.993313    1.733860
 H    3.892509   -2.844238    0.368805
 H   -0.276833   -1.750129    0.344728
 H    0.241269   -0.220173   -1.659246
 H   -0.535837    1.031337   -0.676039
 H   -4.248762    0.429394   -1.930244
 H   -5.575022    2.314495   -0.580962
 H   -4.794039    2.399403    1.920573
