29 
5mb1_ligand_ani.xyz
 O   -2.159629   -1.511173    0.070285
 S   -1.728710   -0.191928   -0.359500
 O   -2.168970    0.346688   -1.636661
 N   -2.289195    0.841788    0.802589
 C   -1.993113    0.544759    2.196065
 C    0.063590   -0.102368   -0.284094
 C    0.830589   -1.275696   -0.144098
 C    0.282530   -2.674946   -0.258101
 C    2.194666   -1.133077    0.100793
 C    2.824682    0.107489    0.147635
 C    4.299619    0.217755    0.430774
 C    2.051491    1.232017   -0.113800
 C    0.681152    1.160256   -0.365490
 C   -0.030908    2.445784   -0.699390
 H   -2.291310    1.808470    0.510266
 H   -2.295517   -0.483507    2.399703
 H   -0.930152    0.661405    2.444792
 H   -2.585470    1.213258    2.823871
 H   -0.307876   -2.945631    0.621201
 H   -0.375005   -2.772780   -1.124988
 H    1.105001   -3.390197   -0.356045
 H    2.785431   -2.035147    0.247541
 H    4.545402   -0.175304    1.424347
 H    4.885930   -0.351242   -0.300407
 H    4.635921    1.257830    0.390662
 H    2.524959    2.211513   -0.136959
 H   -0.795229    2.296410   -1.464548
 H   -0.506145    2.883996    0.186835
 H    0.690784    3.183301   -1.063146
