18 
5mby_ligand_ani.xyz
 N    0.739521   -1.045431    0.588846
 C   -0.098600    0.189907    0.780439
 C   -1.419039    0.045601    0.044230
 O   -1.532239   -1.174436   -0.535996
 C    0.724161    1.358495    0.218495
 C    1.618779    0.686942   -0.821867
 C    1.979173   -0.640463   -0.155418
 O   -2.272494    0.890141   -0.033806
 H    0.182797   -1.703074    0.004708
 H    0.928176   -1.505323    1.491344
 H   -0.338093    0.324558    1.834403
 H   -2.396147   -1.185879   -0.980422
 H    0.080533    2.143077   -0.186544
 H    1.330996    1.797718    1.016882
 H    2.503944    1.281644   -1.065057
 H    1.066623    0.514371   -1.753495
 H    2.809225   -0.498489    0.543694
 H    2.266325   -1.419117   -0.864289
