18 
5mby_ligand_xtb.xyz
 N    0.757789   -1.052004    0.555321
 C   -0.092463    0.161758    0.785402
 C   -1.434699    0.042746    0.040703
 O   -1.588887   -1.169191   -0.508080
 C    0.724256    1.338038    0.234191
 C    1.592546    0.679966   -0.834163
 C    2.000569   -0.620021   -0.156837
 O   -2.218582    0.931447   -0.030984
 H    0.199380   -1.686670   -0.038087
 H    0.974049   -1.547243    1.423534
 H   -0.321557    0.289964    1.845887
 H   -2.442218   -1.244281   -0.968422
 H    0.072750    2.114769   -0.160525
 H    1.343705    1.775414    1.015993
 H    2.452549    1.287859   -1.099909
 H    1.016480    0.485554   -1.738700
 H    2.783656   -0.434242    0.579257
 H    2.335183   -1.390060   -0.849528
