25 
5meh_ligand_ani.xyz
 C   -0.209035    1.024402    0.147374
 O   -0.084124    2.372181   -0.253392
 C   -1.463841    0.393700   -0.455737
 O   -2.563899    1.002509    0.226328
 C   -1.500658   -1.125696   -0.270082
 O   -1.491594   -1.421925    1.125167
 C   -0.227929   -1.752955   -0.829266
 N    0.857730   -1.183840   -0.028348
 C    1.026587    0.268741   -0.304247
 C    2.326636    0.702294    0.364879
 O    3.240216   -0.357027    0.085028
 H   -0.293001    0.948064    1.242917
 H   -0.899952    2.808743    0.028263
 H   -1.480637    0.633960   -1.529899
 H   -3.358969    0.877165   -0.306540
 H   -2.398922   -1.546485   -0.746054
 H   -2.123089   -0.799622    1.518700
 H   -0.259965   -2.840272   -0.748343
 H   -0.106600   -1.490551   -1.884763
 H    0.521046   -1.295185    0.950813
 H    1.779894   -1.626936   -0.125827
 H    1.128492    0.409593   -1.386135
 H    2.666597    1.660380   -0.045670
 H    2.188565    0.824286    1.452335
 H    4.117078   -0.105085    0.396077
