32 
5mf6_ligand_ani.xyz
 N    4.352136   -0.372546   -0.890149
 C    3.054216   -0.267123   -1.181038
 C    4.667053   -0.681286    0.368376
 C    3.722541   -0.897223    1.367675
 C    2.376632   -0.782775    1.044900
 C    2.024619   -0.453518   -0.261712
 C    0.577611   -0.245313   -0.668599
 N   -0.271355   -1.287569   -0.095021
 C    0.074864    1.109132   -0.257112
 C   -1.657403   -1.099328   -0.068979
 C   -2.188827    0.199840    0.010248
 N   -1.269347    1.273608    0.017760
 C   -3.567374    0.393074    0.079018
 C   -1.503344    2.593636    0.323354
 C   -0.309296    3.266078    0.241461
 C    0.691713    2.327777   -0.129262
 C   -4.421866   -0.698998    0.082926
 C   -3.901769   -1.991217    0.018678
 C   -2.529358   -2.185293   -0.055606
 H    2.819260   -0.019543   -2.218023
 H    5.730558   -0.762368    0.588249
 H    4.036332   -1.150529    2.376367
 H    1.598003   -0.949284    1.786351
 H    0.545411   -0.295607   -1.772198
 H   -0.008295   -2.216811   -0.396101
 H   -3.976170    1.399164    0.121213
 H   -2.492259    2.935197    0.591397
 H   -0.161089    4.320852    0.427730
 H    1.749650    2.503901   -0.281609
 H   -5.495220   -0.539358    0.138305
 H   -4.565824   -2.850798    0.025287
 H   -2.120460   -3.194052   -0.101060
