30 
5mfr_ligand_xtb.xyz
 C    2.022865   -1.462860   -0.091999
 C   -0.958096    1.785785    0.160249
 C   -1.954253    0.701807   -0.221245
 C    3.487753    0.326064    0.518523
 C    3.236999   -1.029972    0.410562
 C    1.052955   -0.553417   -0.495462
 C    1.302031    0.814330   -0.382506
 C    2.522771    1.236716    0.126352
 C   -0.258391   -1.058581   -1.037847
 C    0.262072    1.827966   -0.773218
 C   -1.432727   -0.751802   -0.102076
 N   -3.118852    0.715139    0.721255
 O   -2.575102   -1.517617   -0.434814
 O   -1.122010   -0.942593    1.253505
 H    1.835446   -2.523394   -0.187717
 H   -0.611509    1.621961    1.182604
 H   -1.469608    2.749237    0.115207
 H   -2.330411    0.851309   -1.236524
 H    4.431958    0.674726    0.905565
 H    3.981585   -1.749337    0.712135
 H    2.722046    2.294346    0.211307
 H   -0.200077   -2.143312   -1.162748
 H   -0.469965   -0.627496   -2.017804
 H   -0.058884    1.672214   -1.805348
 H    0.706183    2.821051   -0.713099
 H   -3.636686    1.597820    0.722582
 H   -2.738318    0.507217    1.657280
 H   -3.714910   -0.084083    0.444669
 H   -2.368382   -2.459831   -0.450255
 H   -0.373469   -1.542939    1.355838
