40 
5mfs_ligand_dft.xyz
 C   -2.716852   -0.196836   -1.179181
 C    0.237882    0.860099    0.480219
 C    1.310226    1.768515    0.420777
 C    1.107376    3.039156   -0.110841
 C    0.471715   -0.539174    1.006205
 C    2.696125    1.364754    0.873503
 C    1.357340   -1.389829    0.088457
 C    3.344506    0.302645   -0.035971
 C    2.865853   -1.112081    0.255845
 C   -3.814110   -1.053884   -1.162857
 C   -4.404588   -1.408103    0.046632
 C   -3.898077   -0.898989    1.240254
 C   -2.800834   -0.044017    1.224400
 C   -2.196819    0.311733    0.013854
 C   -1.025363    1.236634   -0.013884
 C   -0.140259    3.414196   -0.598899
 C   -1.195186    2.515261   -0.556329
 N    3.497205   -2.072684   -0.725841
 O    1.266770   -2.758349    0.397348
 O    1.039785   -1.233194   -1.272616
 H   -2.264167    0.086577   -2.126414
 H    1.933422    3.744146   -0.146648
 H    0.917541   -0.533196    2.007097
 H   -0.480064   -1.067170    1.097626
 H    2.685868    1.004262    1.910657
 H    3.342101    2.246436    0.868172
 H    3.141731    0.554108   -1.084240
 H    4.432037    0.330224    0.104666
 H    3.179218   -1.439029    1.251051
 H   -4.210796   -1.441192   -2.096181
 H   -5.262327   -2.073083    0.059253
 H   -4.364693   -1.159458    2.185104
 H   -2.414774    0.365401    2.154347
 H   -0.286687    4.406747   -1.012260
 H   -2.173577    2.799455   -0.930972
 H    3.129498   -1.847766   -1.660034
 H    3.167630   -3.019771   -0.496484
 H    4.518811   -2.038813   -0.734482
 H    0.379188   -3.065419    0.162574
 H    0.503564   -0.431805   -1.382907
