55 
5mg2_ligand_dft.xyz
 C    3.319975    3.038472   -0.722368
 C    1.931143    2.899345   -0.551598
 C    1.395369    1.665496   -0.261041
 C    2.231531    0.531218   -0.130230
 C    6.788792   -1.632795   -0.177019
 C    8.273800   -1.377502   -0.381562
 C    1.668115   -0.731484    0.175361
 C    2.485033   -1.826630    0.307024
 C    3.877661   -1.704766    0.135877
 C    0.206754   -0.889375    0.359816
 C   -1.997814    0.131896    0.352648
 C   -2.555487    0.296862    1.623996
 C   -3.940356    0.166331    1.775442
 C   -4.707464   -0.121337    0.660590
 C   -4.125656   -0.282438   -0.604147
 C   -2.761665   -0.158240   -0.777007
 C   -6.368424   -0.576939   -0.826057
 C   -7.071743   -0.231167    1.538523
 C   -0.073906    1.547438   -0.083007
 O   -0.822289    2.501139   -0.162991
 N   -0.573324    0.265202    0.187904
 O   -0.311160   -1.950528    0.645722
 C    4.470127   -0.497722   -0.163667
 C    5.964199   -0.359241   -0.352305
 O    8.697116   -0.438806    0.588890
 C    3.634997    0.660785   -0.300559
 C    4.149385    1.948706   -0.600164
 N   -5.151093   -0.558799   -1.494113
 C   -5.020414   -0.797646   -2.908682
 O   -7.468030   -0.787431   -1.304163
 N   -6.070718   -0.304197    0.505045
 C   -1.678053    0.609702    2.807470
 H    3.737231    4.014021   -0.950383
 H    1.264050    3.749964   -0.643150
 H    6.645452   -2.040747    0.830438
 H    6.470622   -2.401213   -0.892426
 H    8.446285   -0.997667   -1.402118
 H    8.823643   -2.325719   -0.282974
 H    2.038048   -2.786546    0.544129
 H    4.486610   -2.595001    0.247534
 H   -4.398258    0.289787    2.752227
 H   -2.286908   -0.278047   -1.744667
 H   -6.885398   -0.983250    2.312517
 H   -7.082922    0.763036    1.997742
 H   -8.037997   -0.424840    1.070339
 H    6.153755    0.044351   -1.357439
 H    6.348775    0.391071    0.348142
 H    9.632692   -0.257873    0.447815
 H    5.217859    2.080574   -0.732605
 H   -4.585943    0.073795   -3.409984
 H   -4.390126   -1.673281   -3.097099
 H   -6.021480   -0.980322   -3.302175
 H   -0.939145   -0.182574    2.970263
 H   -1.137496    1.550997    2.659104
 H   -2.273886    0.705230    3.719254
