26 
5mge_ligand_dft.xyz
 C   -4.301017   -1.773305    0.001018
 C   -3.688526   -0.389083    0.000345
 O   -2.262256   -0.552237    0.000055
 C   -1.542699    0.586360   -0.000382
 O   -2.046957    1.682976   -0.000649
 C   -0.083562    0.271526   -0.000480
 C    0.267348   -1.196407   -0.000564
 N    1.681207   -1.511596   -0.001436
 C    1.987865   -2.928896   -0.000882
 C    2.702668   -0.613462    0.000581
 O    3.880219   -0.935145    0.002105
 C    2.337772    0.859876   -0.000169
 C    0.881944    1.198285   -0.000195
Cl    0.598815    2.911387    0.000131
 H   -3.996582   -2.334515   -0.887167
 H   -3.995099   -2.334219    0.888887
 H   -5.392281   -1.693995    0.001934
 H   -3.977197    0.188582    0.883424
 H   -3.977591    0.187911   -0.883043
 H   -0.199383   -1.669851   -0.875302
 H   -0.198431   -1.669663    0.874835
 H    1.568518   -3.409499    0.891240
 H    1.563929   -3.410782   -0.890088
 H    3.070534   -3.044317   -0.003435
 H    2.823041    1.311351   -0.873015
 H    2.823436    1.312463    0.871833
