18 
5mgg_ligand_dft.xyz
 C   -4.218144   -0.151915   -0.000430
 N   -2.855756    0.330802    0.001062
 C   -1.812400   -0.521830    0.000152
 O   -1.917653   -1.740653   -0.000454
 C   -0.458430    0.152882    0.000207
 N   -0.425828    1.488477   -0.000112
 C    0.770642    2.074231   -0.000289
 C    1.972486    1.373131   -0.000156
 C    1.908610   -0.015399    0.000118
 C    0.676402   -0.651844    0.000246
Cl    3.374918   -0.951748   -0.000011
 H   -4.415965   -0.755964   -0.891697
 H   -4.409719   -0.774773    0.879016
 H   -4.896233    0.703030    0.011000
 H   -2.642602    1.317925   -0.000025
 H    0.776004    3.161224   -0.000414
 H    2.923343    1.892798   -0.000316
 H    0.568889   -1.729781    0.000511
