18 
5mgl_ligand_ani.xyz
 C    4.226908   -0.136869    0.022524
 N    2.858729    0.324177   -0.017111
 C    1.811547   -0.528741   -0.008539
 O    1.905686   -1.747892   -0.006053
 C    0.454413    0.145044   -0.007393
 N    0.429133    1.478298   -0.005537
 C   -0.764394    2.070683    0.000528
 C   -1.968162    1.375484    0.005423
 C   -1.910770   -0.012700    0.000933
 C   -0.682440   -0.655056   -0.006496
Cl   -3.374461   -0.942074    0.004942
 H    4.683225    0.045813    1.002336
 H    4.223387   -1.211760   -0.168010
 H    4.818963    0.366480   -0.747495
 H    2.646744    1.311398   -0.009105
 H   -0.761550    3.159139    0.001765
 H   -2.917999    1.898751    0.012452
 H   -0.590053   -1.735809   -0.010866
