119 
5mgx_ligand_xtb.xyz
 N   -1.810745   -1.326417   -2.344415
 C   -2.167479   -2.749283   -2.189206
 C   -3.456356   -2.876540   -1.356320
 O   -4.463251   -3.378765   -1.814659
 C   -1.010969   -3.505016   -1.516777
 C   -1.525160   -4.815577   -0.946746
 O   -1.525704   -5.779126   -1.851092
 O   -1.906727   -4.953821    0.185995
 N   -3.349421   -2.421485   -0.106810
 C   -4.454028   -2.529346    0.828213
 C   -5.219481   -1.218177    0.599255
 O   -5.013441   -0.225149    1.272493
 C   -3.915706   -2.708442    2.274460
 O   -2.516027   -2.833624    2.282484
 C   -4.594796   -3.894831    2.949700
 N   -6.025265   -1.259104   -0.477547
 C   -6.379403   -0.034371   -1.194059
 C   -5.050367    0.550944   -1.684871
 O   -4.226042   -0.188732   -2.223084
 C   -7.231274    0.903304   -0.348695
 N   -4.809122    1.840425   -1.476379
 C   -3.554869    2.416110   -1.906127
 C   -2.384038    1.909525   -1.053458
 O   -1.297981    1.664597   -1.564048
 C   -3.595628    3.950389   -1.934564
 C   -4.149711    4.610433   -0.678389
 S   -5.988900    4.591159   -0.683001
 C   -6.277769    5.132494    1.019796
 N   -2.620393    1.747977    0.246215
 C   -1.563003    1.390580    1.175018
 C   -0.541613    0.480817    0.485560
 O   -0.861390   -0.623463    0.034881
 C   -2.117244    0.643859    2.393338
 C   -2.882670    1.530183    3.385889
 C   -4.312857    1.781416    2.968383
 O   -5.176257    1.208373    3.779449
 O   -4.646914    2.458477    2.020483
 N    0.708740    0.922532    0.501183
 C    1.876268    0.205963    0.042705
 C    2.940933    0.337949    1.147286
 O    2.845201    1.196140    2.000252
 C    2.460938    0.854353   -1.225852
 C    1.587145    0.619822   -2.458137
 C    1.632765   -0.791583   -2.964469
 O    2.833542   -1.340391   -2.906668
 O    0.675527   -1.394180   -3.409155
 N    3.939101   -0.552991    1.055529
 C    5.219112   -0.327730    1.695947
 C    6.176519    0.145746    0.592642
 O    5.834039    0.155294   -0.572069
 C    5.727281   -1.591306    2.418961
 C    4.723176   -2.012478    3.489081
 C    5.998797   -2.729256    1.438188
 N    7.371535    0.598176    1.023177
 C    8.431785    0.897776    0.089697
 C    9.313800   -0.336522   -0.095612
 O    9.009635   -1.430694    0.294550
 C    9.245257    2.123982    0.505619
 C   10.004704    2.678522   -0.686446
 O   11.197929    3.144932   -0.328956
 O    9.579974    2.719285   -1.806037
 O   10.443789   -0.060787   -0.733227
 H   -2.653329   -0.769278   -2.597320
 H   -1.017458   -1.212579   -3.009429
 H   -1.469045   -0.948821   -1.423206
 H   -2.384248   -3.180217   -3.171551
 H   -0.613284   -2.905178   -0.697347
 H   -0.230917   -3.709244   -2.248699
 H   -1.894607   -6.608353   -1.504719
 H   -2.498265   -2.007570    0.262515
 H   -5.065506   -3.385684    0.527894
 H   -4.128083   -1.791396    2.836779
 H   -2.282336   -3.689507    1.888284
 H   -4.227194   -3.995191    3.967532
 H   -4.368592   -4.810856    2.406611
 H   -5.671260   -3.752868    2.977925
 H   -5.982279   -2.100484   -1.041712
 H   -6.941966   -0.344522   -2.080804
 H   -8.091930    0.354996    0.026386
 H   -7.590553    1.735479   -0.948494
 H   -6.664279    1.276790    0.499009
 H   -5.486933    2.457206   -1.035106
 H   -3.340820    2.063529   -2.925089
 H   -2.575195    4.300121   -2.106016
 H   -4.201584    4.266915   -2.786314
 H   -3.847384    5.657912   -0.648088
 H   -3.821866    4.114320    0.233743
 H   -7.352495    5.154529    1.164985
 H   -5.815976    4.420442    1.696626
 H   -5.863602    6.127566    1.155085
 H   -3.530841    1.946143    0.655655
 H   -1.053303    2.308878    1.502242
 H   -1.276125    0.191606    2.920724
 H   -2.764842   -0.160019    2.047740
 H   -2.377635    2.492769    3.493731
 H   -2.910382    1.034349    4.355330
 H   -6.090431    1.314185    3.469820
 H    0.948744    1.770994    1.000875
 H    1.605046   -0.839108   -0.129281
 H    2.536005    1.928077   -1.048902
 H    3.468535    0.475138   -1.404208
 H    1.965611    1.241615   -3.274062
 H    0.554830    0.914599   -2.266585
 H    2.854801   -2.219711   -3.317769
 H    4.005145   -1.109224    0.213720
 H    5.071727    0.480488    2.420941
 H    6.670713   -1.334375    2.911302
 H    3.773360   -2.283091    3.034666
 H    4.547277   -1.202904    4.193100
 H    5.100220   -2.871169    4.037676
 H    6.394612   -3.587313    1.974807
 H    6.733671   -2.431507    0.694484
 H    5.085396   -3.038266    0.935648
 H    7.639336    0.436810    1.981902
 H    7.954700    1.101022   -0.880907
 H    8.559230    2.902940    0.846383
 H    9.949276    1.899555    1.306415
 H   11.672725    3.511177   -1.092668
 H   10.973399   -0.863243   -0.873707
