32 
5mi6_ligand_ani.xyz
 C    0.412825   -0.898007    1.015825
 C   -0.126934    0.550449    1.072367
 C    0.537354    1.441492    0.028426
 C    2.043692    1.264399    0.002952
 C    2.341123   -0.204709   -0.260777
 C    3.824643   -0.543192   -0.266381
 C   -1.901595   -0.470547    0.109832
 C   -5.547509   -0.139822   -0.464250
 N   -1.557434    0.541036    0.816387
 O    0.257093    2.803096    0.281120
 O    2.610387    2.018118   -1.044315
 O    1.779871   -1.017165    0.778291
 N   -3.157357   -0.673615   -0.368275
 O    4.013821   -1.918060   -0.496523
 S   -0.655504   -1.716286   -0.239790
 C   -4.136999    0.403994   -0.292579
 H    0.209853   -1.393080    1.969040
 H    0.073430    0.973665    2.063742
 H    0.154985    1.151654   -0.961793
 H    2.468922    1.552433    0.980940
 H    1.908765   -0.491753   -1.231188
 H    4.324129    0.002306   -1.070831
 H    4.274118   -0.226409    0.690585
 H   -5.672362   -0.600126   -1.451468
 H   -6.286567    0.662633   -0.374549
 H   -5.762332   -0.893567    0.299179
 H   -0.706090    2.887941    0.245919
 H    2.277024    2.921088   -0.945803
 H   -3.253751   -1.347949   -1.112151
 H    3.443453   -2.370150    0.142072
 H   -4.009122    0.875188    0.684327
 H   -3.921820    1.172512   -1.049243
