44 
5mi7_ligand_dft.xyz
 C   -2.534588    4.386149    0.301167
 C   -3.138501    3.025937    0.032795
 O   -4.343653    2.898400   -0.180388
 N   -2.261994    1.994347    0.031885
 C   -2.545601    0.647828   -0.446957
 C   -3.652798   -0.098508    0.327535
 O   -4.945500    0.307673   -0.018464
 C   -3.615816   -1.587491   -0.009090
 O   -4.573724   -2.282121    0.745215
 C   -2.252694   -2.172022    0.296481
 C   -2.089259   -3.631341   -0.085816
 O   -0.786464   -4.087346    0.185778
 O   -1.256417   -1.466521   -0.482291
 C   -1.235253   -0.132136   -0.405524
 N   -0.158776    0.549514   -0.395355
 O    0.971647   -0.251655   -0.387419
 C    2.113130    0.498090   -0.174495
 O    2.132410    1.681152    0.038500
 N    3.160763   -0.369905   -0.247526
 C    4.528581   -0.091283   -0.054060
 C    5.022386    1.195884    0.171107
 C    6.390723    1.376610    0.348524
 C    7.273202    0.302450    0.303525
 C    6.773181   -0.976738    0.077068
 C    5.410770   -1.175104   -0.100487
 H   -3.225834    4.963892    0.916869
 H   -2.416621    4.908622   -0.653586
 H   -1.559497    4.333572    0.791691
 H   -1.273630    2.200307    0.125437
 H   -2.872544    0.686559   -1.497512
 H   -3.461446    0.023845    1.407187
 H   -4.957195    1.289166   -0.050801
 H   -3.809289   -1.691922   -1.090448
 H   -5.385162   -1.756825    0.681013
 H   -2.007800   -2.043215    1.357623
 H   -2.780398   -4.230809    0.509250
 H   -2.352417   -3.753430   -1.148417
 H   -0.185216   -3.490085   -0.278046
 H    2.916441   -1.331744   -0.431643
 H    4.342120    2.035624    0.206955
 H    6.767278    2.380086    0.523316
 H    8.337770    0.459049    0.444203
 H    7.445021   -1.828900    0.039438
 H    5.027300   -2.178084   -0.273666
