35 
5mih_ligand_ani.xyz
 O   -0.517022   -3.026600   -0.678923
 C   -0.897407   -1.818306   -0.049083
 C   -2.248134   -1.425653   -0.623822
 O   -3.222744   -2.395004   -0.286339
 C    0.126135   -0.710012   -0.257980
 O   -0.337406    0.477561    0.345733
 C   -1.567625    0.930223   -0.198513
 C   -1.898710    2.242917    0.464187
 O   -2.971461    2.952900   -0.145134
 C   -1.666713    3.506708   -0.235656
 C   -2.691488   -0.099001   -0.016390
 O   -2.929862   -0.282720    1.360882
 O    1.305740   -1.113185    0.375244
 C    2.456490   -0.393881    0.169268
 C    3.621895   -0.984939    0.661536
 C    4.839191   -0.340883    0.495884
 C    4.906284    0.890051   -0.154072
 C    3.739273    1.471808   -0.632551
 C    2.507028    0.840820   -0.473905
 H    0.305252   -3.310514   -0.259148
 H   -1.018569   -1.953617    1.034436
 H   -2.165626   -1.330059   -1.719517
 H   -2.808573   -3.258541   -0.434521
 H    0.319290   -0.549032   -1.333742
 H   -1.455934    1.109011   -1.282822
 H   -1.905178    2.234844    1.554167
 H   -1.227147    3.497502   -1.233666
 H   -1.505795    4.419273    0.336882
 H   -3.592115    0.269968   -0.533077
 H   -3.468609   -1.086620    1.419518
 H    3.556467   -1.944208    1.167664
 H    5.745635   -0.804408    0.877030
 H    5.862050    1.390190   -0.283406
 H    3.779102    2.433420   -1.139811
 H    1.604491    1.320082   -0.835109
