36 
5mjb_ligand_ani.xyz
 C    1.318555   -1.162368   -0.857156
 C    0.843159   -0.160094    0.022136
 C    1.777564    0.633222    0.719705
 C    7.390303   -0.800659   -0.432356
 C    0.090236    1.817768    1.662093
 C   -0.541018    0.140356    0.272742
 C   -2.901530   -0.449146   -0.217542
 C   -3.642576   -1.459509    0.391712
 C   -5.019744   -1.343731    0.548196
 C   -5.680578   -0.216390    0.066190
 C   -4.953769    0.781042   -0.569201
 C   -3.575990    0.675161   -0.716951
Cl   -2.719962    1.925364   -1.558970
 O   -5.663657   -2.367245    1.172581
 N   -1.503354   -0.614750   -0.352744
 N   -0.907780    1.124099    1.067838
 N    1.380807    1.642638    1.552212
 C    3.160803    0.400587    0.566233
 C    3.600137   -0.589981   -0.278795
 C    2.665266   -1.376628   -0.999508
 N    4.963596   -0.883898   -0.478247
 C    6.060822   -0.202586   -0.011620
 O    6.005857    0.806345    0.667437
 H    0.622797   -1.757339   -1.443938
 H    7.834491   -0.159294   -1.199320
 H    8.054935   -0.789159    0.433264
 H    7.317158   -1.819972   -0.821872
 H   -0.238034    2.624566    2.315457
 H   -3.150838   -2.349439    0.775481
 H   -6.758014   -0.117396    0.178521
 H   -5.459645    1.659785   -0.958084
 H   -6.607237   -2.167722    1.217232
 H   -1.213475   -1.543539   -0.622213
 H    3.852741    1.019468    1.119348
 H    3.019537   -2.155131   -1.671431
 H    5.144630   -1.687702   -1.058780
