30 
5mjn_ligand_xtb.xyz
Cl   -5.047016   -1.643559    0.533638
 C   -3.757435   -0.637541   -0.028724
 C   -3.924233    0.739179   -0.047964
 C   -2.890444    1.538395   -0.496295
 C   -2.571358   -1.215653   -0.450661
 C   -1.541525   -0.405687   -0.895952
 C   -1.692945    0.976413   -0.928077
 C   -0.567474    1.843750   -1.374017
 S    0.171582    2.766656    0.047204
 C    1.020194    1.420999    0.787116
 C    0.468628    0.403613    1.438506
 C    1.416933   -0.657564    1.904419
 S    2.790035    1.299092    0.637595
 C    2.709893   -0.426302    1.142206
 S    2.607597   -1.370854   -0.424984
 O    2.455116   -2.762464   -0.122619
 O    1.647642   -0.755125   -1.295917
 N    4.144963   -1.130931   -1.043693
 H   -4.852079    1.175784    0.286254
 H   -3.006134    2.612172   -0.503855
 H   -2.453188   -2.287487   -0.428635
 H   -0.609756   -0.845269   -1.218486
 H   -0.898105    2.630509   -2.050625
 H    0.234365    1.261342   -1.824501
 H   -0.585196    0.333517    1.641397
 H    1.045531   -1.660058    1.677563
 H    1.565868   -0.582832    2.987220
 H    3.620227   -0.749005    1.635488
 H    4.162200   -0.489906   -1.820182
 H    4.609893   -1.996958   -1.259724
