147 
5mk9_ligand_xtb.xyz
 C   -1.104713   -3.805933   -0.142930
 C   -2.116217   -4.918023   -0.487674
 O   -1.553252   -5.922802   -1.287666
 C   -3.329727   -4.334480   -1.240048
 O   -4.500089   -5.044996   -0.923086
 C   -3.500450   -2.849629   -0.891545
 O   -4.591079   -2.257131   -1.575938
 C   -2.253594   -2.088569   -1.365373
 O   -1.053435   -2.815197   -1.158206
 C   -2.180703   -0.692412   -0.716609
 O   -1.925401   -0.740128    0.661098
 C   -5.847145   -2.378961   -0.930403
 C   -6.836328   -1.728609   -1.903897
 O   -6.688513   -2.247570   -3.196665
 C   -6.574887   -0.214264   -1.904515
 O   -7.431855    0.438467   -2.804714
 C   -6.772134    0.380271   -0.506903
 O   -5.836437    1.443906   -0.398553
 C   -6.622462   -0.659248    0.620541
 O   -5.799216   -1.772517    0.331824
 C   -7.998916   -1.116183    1.141708
 O   -8.671127    0.021873    1.628462
 C   -6.010025    2.324519    0.677803
 C   -5.496954    3.693282    0.194916
 O   -6.149009    4.104095   -0.974365
 C   -3.981766    3.599790   -0.035712
 O   -3.451251    4.866489   -0.358871
 C   -3.281420    3.070422    1.217901
 O   -1.922891    2.876863    0.879733
 C   -3.934214    1.749238    1.662135
 O   -5.339013    1.923927    1.838256
 C   -3.377993    1.261645    3.002875
 O   -3.502874    2.229894    4.010990
 C   -0.955862    3.237820    1.838466
 C   -0.293227    4.568934    1.426850
 O   -1.216958    5.613483    1.311245
 C    0.477166    4.380646    0.108844
 O    1.161427    5.565986   -0.212956
 C    1.462041    3.214329    0.264353
 O    2.108815    2.890022   -0.953072
 C    0.683225    1.974834    0.721026
 O   -0.001625    2.222037    1.944474
 C    1.608339    0.784746    0.974045
 O    0.882552   -0.326422    1.449121
 C    3.317604    3.594909   -1.168478
 C    3.770797    3.214842   -2.580852
 O    2.706408    3.280384   -3.491581
 C    4.350933    1.791702   -2.536055
 O    4.669835    1.358835   -3.827707
 C    5.605985    1.764511   -1.656604
 O    5.722426    0.436848   -1.167363
 C    5.534204    2.801324   -0.511003
 O    4.226479    3.217653   -0.163552
 C    6.481073    3.997130   -0.731672
 O    6.384210    4.510290   -2.040739
 C    6.909157    0.113210   -0.513812
 C    7.241022   -1.365420   -0.776149
 O    7.470101   -1.569541   -2.135689
 C    6.067200   -2.198641   -0.252790
 O    6.339207   -3.553693   -0.506011
 C    5.915586   -1.904178    1.245145
 O    4.883040   -2.656910    1.884295
 C    5.737794   -0.390917    1.470974
 O    6.815148    0.322773    0.880502
 C    5.685316   -0.023736    2.975077
 O    6.154311   -1.013213    3.841467
 C    3.626356   -2.682269    1.302325
 C    2.593466   -2.980821    2.419956
 O    3.185200   -3.497609    3.580977
 C    1.505173   -3.935785    1.884481
 O    0.331070   -3.822701    2.646398
 C    1.189323   -3.574253    0.428772
 O    0.150288   -4.395452   -0.085745
 C    2.439128   -3.805187   -0.438949
 O    3.625242   -3.717003    0.330104
 C    2.456570   -2.870049   -1.667314
 O    1.467224   -3.205513   -2.591962
 H   -1.370393   -3.343689    0.819909
 H   -2.468530   -5.352144    0.462670
 H   -0.600201   -5.928496   -1.128757
 H   -3.123049   -4.413917   -2.319229
 H   -4.338399   -5.975681   -1.121722
 H   -3.648679   -2.727831    0.186774
 H   -2.339937   -1.957646   -2.451694
 H   -3.157002   -0.219148   -0.849935
 H   -1.421888   -0.096132   -1.237116
 H   -0.976083   -0.881640    0.798589
 H   -6.070381   -3.445963   -0.783508
 H   -7.871619   -1.928736   -1.613931
 H   -5.741609   -2.381869   -3.344568
 H   -5.524097   -0.054434   -2.196499
 H   -7.524021   -0.136802   -3.577805
 H   -7.786332    0.798707   -0.446564
 H   -6.122860   -0.165361    1.461370
 H   -8.580756   -1.595985    0.343736
 H   -7.827848   -1.851231    1.937872
 H   -9.490931   -0.254733    2.051931
 H   -7.069342    2.383078    0.965928
 H   -5.700419    4.453599    0.957130
 H   -6.244039    3.328249   -1.546795
 H   -3.790310    2.896516   -0.860705
 H   -4.095814    5.310883   -0.926675
 H   -3.378717    3.811246    2.022170
 H   -3.741720    0.984335    0.903257
 H   -3.900809    0.337257    3.277206
 H   -2.315535    1.045596    2.891027
 H   -4.440489    2.444134    4.090075
 H   -1.402512    3.332442    2.836013
 H    0.412623    4.867596    2.210861
 H   -1.924020    5.350007    0.693259
 H   -0.242498    4.133148   -0.689653
 H    0.576520    6.299876    0.026271
 H    2.216009    3.474597    1.015853
 H   -0.052574    1.714659   -0.051324
 H    2.088986    0.492366    0.039739
 H    2.377373    1.077937    1.699723
 H    0.356227    0.000388    2.193429
 H    3.120603    4.674779   -1.088989
 H    4.538477    3.903955   -2.940529
 H    1.920297    2.949618   -3.035243
 H    3.602857    1.118484   -2.084560
 H    4.026931    1.766495   -4.426912
 H    6.467952    1.991127   -2.296691
 H    5.880921    2.312170    0.406619
 H    6.218041    4.766429    0.006202
 H    7.505722    3.653068   -0.534849
 H    6.996545    5.248631   -2.132033
 H    7.739484    0.745881   -0.851903
 H    8.141696   -1.617661   -0.190999
 H    7.342189   -2.512555   -2.305593
 H    5.165497   -1.878555   -0.794062
 H    5.563085   -4.058975   -0.222828
 H    6.825760   -2.233422    1.760188
 H    4.807359   -0.063624    0.983973
 H    4.655225    0.256440    3.235359
 H    6.334765    0.841798    3.121846
 H    5.576868   -1.785326    3.772752
 H    3.373155   -1.726565    0.819723
 H    2.104106   -2.045946    2.714069
 H    3.910275   -4.081351    3.326199
 H    1.881454   -4.971083    1.918396
 H    0.575694   -3.908139    3.576625
 H    0.881831   -2.523523    0.398896
 H    2.413701   -4.839886   -0.800761
 H    2.356351   -1.824566   -1.336428
 H    3.411984   -2.981877   -2.187500
 H    0.592839   -3.127628   -2.178767
