147 
5mk9_ligand_ani.xyz
 C   -1.047496   -3.727761   -0.144537
 C   -2.060918   -4.863984   -0.326331
 O   -1.552804   -5.924020   -1.101340
 C   -3.322531   -4.370244   -1.028376
 O   -4.465098   -5.038514   -0.515425
 C   -3.491650   -2.867958   -0.856156
 O   -4.619698   -2.400369   -1.582047
 C   -2.278891   -2.144929   -1.469646
 O   -1.040559   -2.842326   -1.253126
 C   -2.150067   -0.696323   -0.994675
 O   -1.897539   -0.580628    0.391743
 C   -5.876214   -2.478797   -0.932215
 C   -6.860674   -1.785586   -1.875306
 O   -6.764917   -2.312043   -3.182837
 C   -6.558194   -0.295067   -1.896282
 O   -7.421468    0.352883   -2.804865
 C   -6.696583    0.335301   -0.522888
 O   -5.777340    1.433089   -0.484161
 C   -6.490983   -0.674799    0.639532
 O   -5.811612   -1.899544    0.338738
 C   -7.822510   -0.995540    1.316234
 O   -8.320845    0.240715    1.793361
 C   -5.988111    2.400649    0.519486
 C   -5.350010    3.700623    0.031407
 O   -5.903647    4.145381   -1.192260
 C   -3.846730    3.487835   -0.104382
 O   -3.194558    4.703746   -0.437178
 C   -3.262301    2.969051    1.194366
 O   -1.909132    2.635722    0.952412
 C   -4.012295    1.715004    1.647019
 O   -5.416060    2.013120    1.743181
 C   -3.573878    1.234554    3.018048
 O   -3.622569    2.260159    3.985573
 C   -0.961286    3.047402    1.915077
 C   -0.392074    4.431859    1.567534
 O   -1.361604    5.457178    1.572322
 C    0.332521    4.375673    0.225934
 O    0.997765    5.601096    0.007960
 C    1.349869    3.243322    0.227035
 O    1.909674    3.077205   -1.061473
 C    0.648563    1.944041    0.613892
 O    0.061730    2.099411    1.917628
 C    1.566082    0.732071    0.716156
 O    0.839400   -0.356485    1.275124
 C    3.199019    3.615560   -1.235176
 C    3.668784    3.188141   -2.635769
 O    2.600280    3.160418   -3.560437
 C    4.297454    1.803008   -2.544275
 O    4.619725    1.338330   -3.834026
 C    5.540267    1.813000   -1.664119
 O    5.728526    0.453539   -1.259999
 C    5.373340    2.785714   -0.468622
 O    4.002891    3.092961   -0.201727
 C    6.247813    4.037275   -0.578507
 O    6.243746    4.560228   -1.895732
 C    6.922940    0.124402   -0.606866
 C    7.204313   -1.356716   -0.828786
 O    7.336254   -1.603411   -2.204891
 C    6.075186   -2.180136   -0.225270
 O    6.413925   -3.537076   -0.411952
 C    5.931376   -1.813901    1.259120
 O    4.931555   -2.540235    1.972426
 C    5.718799   -0.298894    1.381748
 O    6.834131    0.366164    0.778386
 C    5.593084    0.180623    2.821237
 O    6.498310   -0.427019    3.717720
 C    3.663761   -2.674779    1.380043
 C    2.654200   -2.986521    2.490070
 O    3.227746   -3.733415    3.536933
 C    1.481134   -3.802312    1.947169
 O    0.282185   -3.510289    2.648144
 C    1.257758   -3.511653    0.473010
 O    0.211978   -4.325978   -0.035934
 C    2.515373   -3.870696   -0.340532
 O    3.716119   -3.713316    0.420868
 C    2.609085   -3.063244   -1.644671
 O    1.565238   -3.357531   -2.535794
 H   -1.281244   -3.165586    0.772468
 H   -2.347099   -5.217543    0.679700
 H   -0.614082   -6.002598   -0.878563
 H   -3.201853   -4.576738   -2.098157
 H   -4.472312   -5.931370   -0.881627
 H   -3.593418   -2.623040    0.210494
 H   -2.412121   -2.137318   -2.559340
 H   -3.092362   -0.171492   -1.198801
 H   -1.360147   -0.200334   -1.577781
 H   -0.936642   -0.660282    0.530351
 H   -6.137126   -3.534474   -0.804328
 H   -7.894144   -1.952747   -1.551764
 H   -5.814330   -2.417716   -3.343972
 H   -5.509116   -0.173808   -2.206822
 H   -7.420593   -0.211008   -3.593382
 H   -7.714091    0.741431   -0.434712
 H   -5.865276   -0.199891    1.395580
 H   -8.516216   -1.459681    0.596371
 H   -7.647009   -1.710017    2.131163
 H   -9.140999    0.080243    2.272985
 H   -7.064823    2.523364    0.684156
 H   -5.541546    4.492844    0.762805
 H   -5.908725    3.378709   -1.784408
 H   -3.660407    2.747455   -0.895011
 H   -3.730519    5.133373   -1.120157
 H   -3.347658    3.747188    1.969097
 H   -3.824811    0.912257    0.917751
 H   -4.201503    0.377882    3.313874
 H   -2.533552    0.891399    2.979601
 H   -4.531314    2.593427    3.984144
 H   -1.429242    3.060522    2.909035
 H    0.336494    4.705180    2.340379
 H   -1.962311    5.310914    0.817558
 H   -0.405859    4.182819   -0.570541
 H    0.355621    6.293333    0.226302
 H    2.123206    3.458846    0.975209
 H   -0.141288    1.726814   -0.115306
 H    1.907255    0.434913   -0.282558
 H    2.457189    0.956905    1.323591
 H    0.387175    0.017065    2.050906
 H    3.154003    4.712774   -1.155477
 H    4.411004    3.895492   -3.009546
 H    1.822739    2.901419   -3.041944
 H    3.567436    1.133281   -2.057882
 H    3.859421    1.590715   -4.380969
 H    6.400771    2.129430   -2.269899
 H    5.694868    2.281224    0.445441
 H    5.862932    4.769802    0.144865
 H    7.272250    3.759037   -0.282753
 H    6.792546    5.353461   -1.906954
 H    7.745252    0.740565   -0.995123
 H    8.134589   -1.606466   -0.292686
 H    7.305194   -2.566782   -2.292321
 H    5.145070   -1.933437   -0.765135
 H    5.620999   -4.043857   -0.169923
 H    6.883300   -2.062172    1.745132
 H    4.799529   -0.003862    0.848725
 H    4.555155    0.036020    3.158908
 H    5.806914    1.253990    2.832312
 H    6.174598   -1.326939    3.858177
 H    3.363684   -1.732744    0.888995
 H    2.261242   -2.022814    2.857902
 H    4.170288   -3.510669    3.537056
 H    1.747693   -4.861331    2.053120
 H    0.340452   -3.928224    3.516574
 H    1.008679   -2.445555    0.366209
 H    2.469592   -4.936758   -0.590143
 H    2.664255   -1.980177   -1.420007
 H    3.543886   -3.335847   -2.149276
 H    0.730707   -3.025602   -2.162578
