59 
5mkr_ligand_dft.xyz
 C   -3.154849   -2.807555    0.601966
 C   -2.335278   -2.064734   -0.255234
 C   -2.706252   -0.742719   -0.454798
 C   -1.719474    1.198822   -1.711633
 C   -1.986587    2.112799   -0.486744
 C   -0.969177    3.230014   -0.692047
 C    0.196449    2.478033   -1.331091
 C    1.094024    1.685557   -0.377400
 C    1.768788    2.514728    0.719602
 C    2.254230    1.669762    1.902527
 C    0.114709    0.923673    2.619028
 N   -2.873369   -4.095383    0.933947
 O   -3.282443    2.629961   -0.443810
 O    1.361334    0.597281    2.240836
 C   -2.027380   -0.180415    3.022913
 C   -4.481889   -0.946794    0.855549
 C   -0.736382   -0.288040    2.715591
 N   -1.753731   -0.214343   -1.302263
 C    3.488653   -1.164731   -2.096758
 N    0.098073   -1.130468   -2.517588
 O   -0.258600    2.061027    2.810954
 C    1.183712   -2.098620   -2.552083
 C    2.311431   -1.732302   -1.610841
 C   -0.898508   -1.267689   -1.602182
 O   -1.455114    4.169486   -1.620010
 C    2.159632   -1.891241   -0.230608
 N   -1.198486   -2.383859   -0.970156
 O   -0.461440    1.548399   -2.223947
 C    4.503044   -0.761700   -1.232533
 C    4.326345   -0.933499    0.134176
 C    3.160700   -1.494470    0.646825
 N   -3.773194   -0.129490    0.072292
Cl    5.592675   -0.427170    1.233230
 N   -4.236864   -2.223992    1.147487
 H   -2.474684    1.358690   -2.487029
 H   -1.744704    1.569181    0.434559
 H   -0.712429    3.706640    0.260525
 H    0.775423    3.152504   -1.966706
 H    0.485230    0.897594    0.077724
 H    1.849756    1.157785   -0.971559
 H    1.081444    3.269762    1.101914
 H    2.637906    3.046720    0.315392
 H    3.188434    1.158301    1.669684
 H    2.402587    2.301913    2.782551
 H   -3.614966   -4.623848    1.367267
 H   -2.223253   -4.597287    0.348874
 H   -3.847820    1.865311   -0.217600
 H   -2.673885   -1.050414    3.074841
 H   -2.465105    0.794411    3.218676
 H   -5.368318   -0.516765    1.314112
 H   -0.267636   -1.243751    2.503916
 H    3.622261   -1.031620   -3.167500
 H    0.329974   -0.168007   -2.731402
 H    0.759054   -3.071455   -2.296385
 H    1.553778   -2.154600   -3.580553
 H   -2.403219    4.254008   -1.438778
 H    1.241652   -2.324105    0.156659
 H    5.418230   -0.323123   -1.615029
 H    3.032275   -1.605723    1.717361
