29 
5mkz_ligand_ani.xyz
 C   -0.735172   -0.347959   -0.634601
 C   -3.359421    2.675803    0.619268
 C   -2.955468    0.278155    0.260646
 C   -1.980446   -0.698669   -0.183637
 C    3.391662    1.592716   -1.553273
 C    3.200378    0.697640   -0.362474
 C    3.825790    0.915019    0.906538
 C    3.469233   -0.006134    1.841767
 S    2.363622   -1.158074    1.207719
 C    2.382840   -0.397830   -0.345292
 C    1.526198   -0.937490   -1.468933
 N    0.167511   -1.269332   -1.092953
 C   -0.440396    1.066193   -0.623571
 N   -1.274509    1.974828   -0.229590
 N   -2.483277    1.597091    0.190672
 O   -4.078949    0.025649    0.661755
Cl   -2.465269   -2.350007   -0.121475
 H   -2.916636    3.204669    1.466874
 H   -3.512250    3.379616   -0.202045
 H   -4.300839    2.213327    0.908333
 H    2.469464    2.135603   -1.797821
 H    4.162146    2.342074   -1.354675
 H    3.693817    1.028323   -2.442349
 H    4.514349    1.733482    1.101298
 H    3.796084   -0.070459    2.871484
 H    1.965488   -1.850570   -1.881591
 H    1.503519   -0.206890   -2.286192
 H    0.002448   -2.224936   -0.808802
 H    0.526363    1.447106   -0.942516
