60 
5ml5_ligand_ani.xyz
 C   17.668863    8.361289  -25.138720
 O   18.803116    8.977003  -24.563807
 C   19.855435    9.166085  -25.433859
 C   19.787763   10.161187  -26.405750
 C   20.872103   10.417907  -27.229233
 C   22.038255    9.661205  -27.096508
 O   23.053674    9.976312  -27.949166
 C   24.244872    9.231797  -27.834663
 C   22.098729    8.654392  -26.135073
 C   21.013475    8.398379  -25.289184
 C   21.097728    7.284430  -24.275077
 C   21.014179    5.901921  -24.925360
 C   21.238861    4.770274  -23.928138
 O   21.526850    4.975217  -22.762208
 N   21.097291    3.516458  -24.471714
 C   21.238744    2.270792  -23.842539
 C   21.550010    2.155426  -22.488181
 N   21.042392    1.234373  -24.660030
 C   21.165071    0.017346  -24.124946
 C   21.476286   -0.216559  -22.793613
 C   21.672263    0.879286  -21.946508
 C   21.966673    0.702858  -20.522753
 N   21.439372    1.559016  -19.577019
 C   21.745531    1.051246  -18.354867
 S   21.187898    1.826645  -16.882598
 C   21.968755    0.750615  -15.659400
 N   22.457204   -0.034637  -18.444786
 C   22.644034   -0.257511  -19.789020
 C   23.491167   -1.363979  -20.236010
 C   24.207175   -1.301039  -21.435952
 C   25.006350   -2.358514  -21.848486
 C   25.085505   -3.481476  -21.041264
 F   25.851993   -4.512617  -21.433425
 C   24.404179   -3.572409  -19.837297
 C   23.616561   -2.504786  -19.435673
 H   16.937683    8.246113  -24.336559
 H   17.229430    8.972078  -25.938642
 H   17.916596    7.371564  -25.549352
 H   18.874029   10.745445  -26.488001
 H   20.837795   11.193823  -27.987722
 H   24.921721    9.625063  -28.594728
 H   24.702010    9.355180  -26.844199
 H   24.070635    8.164056  -28.021752
 H   22.996099    8.051073  -26.023570
 H   22.040986    7.342753  -23.720171
 H   20.292843    7.396214  -23.542478
 H   20.036382    5.769989  -25.409081
 H   21.762042    5.808356  -25.725054
 H   20.870006    3.435837  -25.451919
 H   21.705180    3.059202  -21.912066
 H   21.006567   -0.819574  -24.800080
 H   21.575155   -1.228228  -22.417377
 H   20.812681    2.327400  -19.766255
 H   21.608117    1.077450  -14.681728
 H   21.686293   -0.289729  -15.834344
 H   23.056122    0.840185  -15.700126
 H   24.133948   -0.415709  -22.060207
 H   25.561804   -2.322831  -22.778965
 H   24.502644   -4.467594  -19.231399
 H   23.086874   -2.546047  -18.488399
