46 
5mmg_ligand_dft.xyz
 C    0.050654    1.751977    2.055784
 C    6.019067   -1.996216   -0.993707
 C   -3.869606    1.841548   -0.025087
 C    4.449927    1.195439    0.495813
 C    3.250473    1.891194    0.537384
 C    0.390550   -1.580442    0.576701
 C   -0.580398   -2.030602    1.451284
 C   -3.162124   -2.004109    1.893067
 C   -4.164439   -1.441680    1.180509
 C    3.440029   -0.507081   -0.869789
 C   -1.280654   -0.551179   -0.859693
 C    0.443574    2.706905    0.940927
 C    5.888573   -0.701750   -0.216728
 C    0.051844   -0.834098   -0.572264
 C    4.565589   -0.005107   -0.208496
 C    2.228771    0.165193   -0.826043
 C    2.133853    1.383942   -0.129832
 C   -1.925175   -1.739904    1.196809
 C   -2.243014   -1.012944    0.034879
 N    1.068106   -0.394032   -1.445599
 N   -3.635648   -0.852443    0.018700
 O    6.837200   -0.238169    0.387630
 O   -3.939684    0.350280   -2.189128
 O   -5.855720    0.173516   -0.541397
 O    0.933322    2.010363   -0.202016
 S   -4.448356    0.355230   -0.832515
 H   -0.698734    1.036845    1.703163
 H    0.917487    1.184864    2.408663
 H   -0.360665    2.312234    2.901873
 H    7.042467   -2.360814   -0.898827
 H    5.326433   -2.753271   -0.609339
 H    5.783353   -1.841915   -2.052416
 H   -2.782542    1.885149   -0.119511
 H   -4.333073    2.689514   -0.532939
 H   -4.171214    1.807150    1.022886
 H    5.327386    1.578163    1.006661
 H    3.192054    2.829951    1.077393
 H    1.435545   -1.797412    0.771145
 H   -0.297882   -2.601630    2.330673
 H   -3.278492   -2.565540    2.809398
 H   -5.230691   -1.412507    1.344906
 H    3.469836   -1.442350   -1.419692
 H   -1.557852    0.006665   -1.747898
 H    1.171791    3.449987    1.286561
 H   -0.425426    3.254815    0.568085
 H    0.690800    0.227317   -2.152064
