46 
5mmg_ligand_ani.xyz
 C    1.792156    3.783379   -0.038903
 C    5.278067   -3.228837    0.839521
 C   -4.535677   -0.318165   -2.098605
 C    4.915455    0.423909   -0.344852
 C    3.949541    1.324524   -0.771704
 C    0.023890    0.939406    1.141788
 C   -1.035014    1.546227    1.784430
 C   -3.649420    1.490728    1.986476
 C   -4.559708    0.701438    1.365269
 C    3.218180   -1.246717   -0.021199
 C   -1.464287   -0.582146   -0.041356
 C    1.784943    3.120861   -1.407485
 C    5.646200   -1.807586    0.470372
 C   -0.179454   -0.112786    0.218167
 C    4.560943   -0.873077    0.027814
 C    2.231188   -0.352146   -0.418652
 C    2.609726    0.938686   -0.837777
 C   -2.342291    1.105386    1.520747
 C   -2.517310    0.050512    0.605960
 N    0.882366   -0.740755   -0.432919
 N   -3.898982   -0.192274    0.518599
 O    6.798578   -1.424860    0.527899
 O   -3.890493   -2.433289   -0.694124
 O   -6.067185   -1.242809   -0.171081
 O    1.608634    1.709136   -1.337966
 S   -4.671945   -1.217015   -0.569175
 H    0.856099    3.581990    0.492971
 H    2.622244    3.419750    0.575954
 H    1.898955    4.867936   -0.149380
 H    6.188938   -3.759638    1.120711
 H    4.573325   -3.244118    1.678376
 H    4.802479   -3.739846   -0.004912
 H   -3.477275   -0.194438   -2.342569
 H   -5.033735   -0.906458   -2.872806
 H   -5.027171    0.650018   -1.984941
 H    5.960691    0.711287   -0.296795
 H    4.251114    2.329582   -1.048484
 H    1.038953    1.265625    1.356155
 H   -0.857529    2.355990    2.488190
 H   -3.863598    2.273199    2.701073
 H   -5.639905    0.648764    1.420190
 H    2.918811   -2.250273    0.274099
 H   -1.630923   -1.414540   -0.717698
 H    2.689973    3.362646   -1.979989
 H    0.929131    3.461557   -1.994964
 H    0.707823   -1.702597   -0.686041
