44 
5mmn_ligand_ani.xyz
 O   -2.639535   -0.827456   -0.072214
 C   -3.224845    0.215276    0.174556
 N   -4.586550    0.274655    0.358276
 C   -5.376120   -0.945875    0.436422
 C   -6.635685   -0.847256   -0.412219
 N   -2.607533    1.455120    0.278281
 C   -1.242164    1.731620    0.174204
 C   -0.288262    0.742313    0.147556
 C    1.073792    1.081215    0.003004
 C    2.131502    0.119364   -0.110450
 C    3.433889    0.572574   -0.113122
 C    3.736877    1.945310   -0.091773
 C    2.747486    2.899843   -0.053629
 C    3.089368    4.359816   -0.050029
 C    1.390085    2.471468   -0.004836
 C    0.305732    3.382535    0.045147
 N   -0.965074    3.048975    0.124213
 C    1.865186   -1.332727   -0.253643
 C    1.004676   -1.834070   -1.234955
 C    0.846899   -3.208566   -1.349285
 N    1.458902   -4.101777   -0.569415
 C    2.280433   -3.630089    0.376330
 C    2.958183   -4.651725    1.250304
 C    2.519386   -2.266199    0.549039
 H   -4.975622    1.100434    0.788470
 H   -5.631421   -1.170746    1.481641
 H   -4.730082   -1.750526    0.080927
 H   -7.305660   -0.064579   -0.038042
 H   -6.376395   -0.610244   -1.448294
 H   -7.185836   -1.794122   -0.400645
 H   -3.171832    2.292831    0.296035
 H   -0.616227   -0.281357    0.242869
 H    4.244837   -0.149655   -0.165850
 H    4.779691    2.254980   -0.108545
 H    2.729361    4.854119    0.859815
 H    4.173476    4.505699   -0.099165
 H    2.646218    4.879112   -0.907794
 H    0.517553    4.450642    0.020308
 H    0.457802   -1.155677   -1.884137
 H    0.183324   -3.617577   -2.108575
 H    2.211847   -5.267601    1.761862
 H    3.575283   -5.320200    0.641517
 H    3.593973   -4.175309    2.001209
 H    3.199272   -1.928334    1.328912
