13 
5mn1_ligand_xtb.xyz
 N   -0.287315   -1.179959    0.008019
 C   -0.895057    0.004257    0.001475
 C   -0.183758    1.213525    0.001272
 C    1.192490    1.163595    0.000032
 C    1.827497   -0.074075   -0.001514
 C    1.034886   -1.206700    0.002080
 N   -2.260126   -0.017299   -0.061704
 H   -0.714926    2.153396    0.000707
 H    1.771095    2.076661    0.002434
 H    2.903016   -0.149726   -0.002129
 H    1.472018   -2.197242    0.006324
 H   -2.689906   -0.908208    0.122121
 H   -2.765558    0.802313    0.226264
