13 
5mnb_ligand_dft.xyz
 N   -0.293954   -1.188880    0.000506
 C   -0.897245    0.003616    0.010048
 C   -0.184952    1.216860    0.007783
 C    1.196486    1.166258   -0.004072
 C    1.839197   -0.072787   -0.007190
 C    1.041562   -1.207691   -0.002687
 N   -2.277366   -0.013017    0.067790
 H   -0.714796    2.164535    0.023975
 H    1.772509    2.087294   -0.007560
 H    2.920244   -0.153591   -0.015313
 H    1.493565   -2.197751   -0.006682
 H   -2.681633   -0.906619   -0.173958
 H   -2.760935    0.781877   -0.321835
