14 
5mnc_ligand_ani.xyz
 C    0.934232    0.000120    0.008340
 C    0.221026    1.204907    0.004704
 C   -1.167969    1.198669   -0.003694
 C   -1.874645   -0.000074   -0.007852
 C   -1.167885   -1.198706   -0.003907
 C    0.221038   -1.204776    0.005056
 N    2.328277   -0.000179    0.077132
 H    0.765695    2.147144    0.015221
 H   -1.702790    2.145601   -0.007587
 H   -2.960952   -0.000202   -0.012730
 H   -1.702506   -2.145899   -0.008566
 H    0.765997   -2.146813    0.016470
 H    2.770877    0.835590   -0.278207
 H    2.770958   -0.835005   -0.280398
