17 
5mng_ligand_ani.xyz
 C   -0.212525   -0.038439   -0.024134
 C    0.522248   -1.210468    0.166748
 C    1.910575   -1.170154    0.198208
 C    2.579240    0.039024    0.021850
 C    1.853397    1.208069   -0.191429
 C    0.462965    1.168361   -0.212476
 C   -1.707204   -0.109343   -0.043031
 N   -2.350907    1.071060    0.318444
 N   -2.268988   -1.197918   -0.402547
 H   -0.017075   -2.145471    0.286919
 H    2.473079   -2.086625    0.355819
 H    3.665324    0.068238    0.045578
 H    2.369817    2.154697   -0.332737
 H   -0.104534    2.077317   -0.397034
 H   -3.339313    0.976058    0.509886
 H   -1.873344    1.635422    1.008933
 H   -3.286866   -1.113922   -0.383062
