17 
5mnh_ligand_xtb.xyz
 C   -0.214408   -0.031154   -0.015226
 C    0.517561   -1.199820    0.175134
 C    1.898576   -1.164341    0.194565
 C    2.565827    0.037188    0.017548
 C    1.844764    1.200981   -0.188497
 C    0.461584    1.170436   -0.203723
 C   -1.690341   -0.106977   -0.031274
 N   -2.233119   -1.186989   -0.413153
 N   -2.361296    1.035732    0.331863
 H   -0.021559   -2.125131    0.300909
 H    2.459012   -2.075056    0.346964
 H    3.645565    0.066462    0.032951
 H    2.361850    2.137402   -0.341592
 H   -0.087840    2.081883   -0.391896
 H   -3.250484   -1.174349   -0.406466
 H   -3.358194    0.971747    0.462649
 H   -1.888822    1.737953    0.874351
