14 
5mny_ligand_ani.xyz
 C   -0.934303   -0.000312   -0.008686
 C   -0.221219    1.204618   -0.006193
 C    1.167734    1.198788    0.004001
 C    1.874603    0.000337    0.008969
 C    1.168246   -1.198463    0.003028
 C   -0.220765   -1.205111   -0.005299
 N   -2.328614   -0.000033   -0.076330
 H   -0.765825    2.146785   -0.018562
 H    1.702396    2.145918    0.008722
 H    2.960946    0.000610    0.016771
 H    1.703449   -2.145231    0.005306
 H   -0.764764   -2.147755   -0.014940
 H   -2.770321    0.835534    0.280802
 H   -2.771357   -0.834780    0.281290
