14 
5moo_ligand_ani.xyz
 C   -0.934291    0.000497   -0.009090
 C   -0.221290   -1.204445   -0.006313
 C    1.167601   -1.198914    0.003298
 C    1.874740   -0.000480    0.009713
 C    1.168363    1.198426    0.003832
 C   -0.220634    1.205110   -0.006714
 N   -2.328796   -0.000047   -0.075635
 H   -0.766062   -2.146588   -0.017988
 H    1.701822   -2.146314    0.006356
 H    2.961068   -0.000845    0.018211
 H    1.703392    2.145403    0.008163
 H   -0.764392    2.147772   -0.019502
 H   -2.769868   -0.835109    0.283752
 H   -2.771324    0.834847    0.282098
