22 
5mos_ligand_ani.xyz
 C    2.295417    0.101371   -0.413920
 C    1.322604    1.264621   -0.621310
 C    0.302399    1.329288    0.520778
 N   -0.400302    0.057668    0.697636
 C    0.515445   -1.055423    0.934403
 C    1.537813   -1.208329   -0.192952
 C   -1.526459   -0.211467   -0.073680
 N   -2.408285    0.876457   -0.153283
 N   -1.682441   -1.355849   -0.627737
 H    2.927590    0.309016    0.462532
 H    2.971580    0.011210   -1.271746
 H    0.786330    1.139362   -1.570766
 H    1.861331    2.217712   -0.685147
 H   -0.422168    2.127918    0.349798
 H    0.822437    1.546731    1.463205
 H   -0.073473   -1.965496    1.054707
 H    1.034037   -0.853578    1.881770
 H    2.230621   -2.025197    0.043469
 H    1.000330   -1.493466   -1.104917
 H   -3.307568    0.630546   -0.544702
 H   -2.513878    1.376090    0.721845
 H   -2.563285   -1.389146   -1.136278
