49 
5mpk_ligand_ani.xyz
 C   26.488017  -23.118185  -13.653217
 C   18.963408  -18.909575  -11.596425
 C   22.012174  -21.102938  -10.766481
 C   23.145286  -21.651761  -11.357871
 C   20.959809  -19.726264  -22.807436
 C   20.272001  -18.852083  -20.670131
 C   21.898515  -19.611222  -18.223862
 C   24.127152  -19.890762  -17.349370
 C   23.764220  -19.773524  -19.737124
 C   21.383275  -20.088193  -12.864924
 C   25.399643  -22.708107  -12.685368
 C   19.929606  -19.763904  -10.806070
 C   22.121606  -19.774063  -15.776027
 C   21.130136  -20.323353  -11.508903
 C   22.755378  -19.770146  -17.136977
 C   22.393794  -19.619136  -19.530144
 C   24.625734  -19.896167  -18.650820
 C   21.491547  -19.463235  -20.689244
 C   22.507310  -20.626076  -13.466145
 C   23.395901  -21.415859  -12.703209
 C   26.068772  -20.046487  -18.858061
 N   21.880353  -19.948477  -21.924649
 N   28.073158  -20.264107  -18.543253
 N   26.944294  -20.158301  -17.866919
 N   26.672292  -20.086618  -20.073891
 N   22.844406  -20.428899  -14.818815
 N   27.945288  -20.225217  -19.849956
 O   19.744393  -19.995928   -9.627585
 O   21.034602  -19.249171  -15.590299
 O   24.470995  -21.897786  -13.392189
 S   19.565108  -18.891969  -22.232323
 H   27.222487  -23.746560  -13.140626
 H   26.068561  -23.686515  -14.488660
 H   27.002577  -22.238871  -14.051588
 H   18.156079  -18.586881  -10.938167
 H   19.478711  -18.036546  -12.012170
 H   18.554167  -19.477676  -12.439312
 H   21.797685  -21.274460   -9.716244
 H   23.819727  -22.257712  -10.760432
 H   21.038496  -20.024193  -23.847143
 H   19.783103  -18.363971  -19.838571
 H   20.838001  -19.493647  -18.017479
 H   24.835536  -19.945254  -16.525232
 H   24.154892  -19.793310  -20.749009
 H   20.722924  -19.493436  -13.484142
 H   24.885335  -23.589448  -12.278046
 H   25.819089  -22.140264  -11.843453
 H   28.973214  -20.365667  -18.096789
 H   23.671243  -20.931077  -15.109248
