21 
5mpz_ligand_ani.xyz
 C   -4.741065    0.095231    0.045476
 C   -0.775130    1.403503   -0.025142
 C    0.542053    1.852213   -0.020577
 C   -0.064623   -0.933465   -0.009144
 C   -2.475577   -0.458825   -0.015707
 C   -1.073717    0.036572   -0.017510
 C    3.456277   -0.333257    0.013573
 C    1.536747    0.888655   -0.007318
 C    1.228711   -0.472916   -0.002697
 N    2.923884    0.939086    0.003850
 O   -2.783272   -1.629530   -0.044848
 O    4.604750   -0.675320    0.023333
 O   -3.382094    0.532717    0.026824
 O    2.386123   -1.207783    0.009751
 H   -4.975428   -0.463211   -0.863843
 H   -4.924903   -0.547074    0.909895
 H   -5.340816    1.002952    0.105374
 H   -1.588169    2.121262   -0.034380
 H    0.768268    2.914415   -0.026431
 H   -0.321424   -1.986051   -0.007167
 H    3.509175    1.757153    0.003403
