21 
5mpz_ligand_xtb.xyz
 C   -4.731987    0.140050    0.012063
 C   -0.771940    1.378346   -0.007003
 C    0.536534    1.831245   -0.006694
 C   -0.060384   -0.950557   -0.000824
 C   -2.474463   -0.468988   -0.004463
 C   -1.071466    0.015377   -0.003956
 C    3.437756   -0.331752    0.003644
 C    1.537014    0.877326   -0.002625
 C    1.234683   -0.494520    0.000253
 N    2.909645    0.947564   -0.000830
 O   -2.789086   -1.632919   -0.015846
 O    4.593721   -0.629328    0.006980
 O   -3.366885    0.532092    0.010973
 O    2.398674   -1.208810    0.003876
 H   -4.970987   -0.402724   -0.904742
 H   -4.940274   -0.507246    0.866299
 H   -5.311410    1.057389    0.075650
 H   -1.583129    2.088079   -0.010035
 H    0.766052    2.884432   -0.009432
 H   -0.308878   -1.998856    0.000595
 H    3.475234    1.778529   -0.002756
