69 
5mra_ligand_ani.xyz
 C    6.201619    1.347855    1.101068
 C    7.332432    0.587175    0.915273
 C    7.264946   -0.632644    0.237380
 C    6.051289   -1.104380   -0.252454
 O    5.951979   -2.261745   -0.927948
 C    4.866610   -0.352001   -0.047974
 C    3.534186   -0.847401   -0.512123
 O    3.386286   -1.946535   -1.030359
 C    2.342786    0.044266   -0.317264
 C    1.071010   -0.365704   -0.772135
 O    0.885276   -1.530180   -1.406707
 C   -0.062534    0.451349   -0.599998
 C   -1.401198   -0.069705   -1.099581
 O   -1.823348   -1.097863   -0.203165
 C   -2.419670    1.069550   -1.233565
 C   -2.459687    1.958889    0.011017
 O   -2.729385    1.166194    1.148447
 C   -3.553837    3.029138   -0.079246
 O   -4.128981    3.376209    0.937546
 C   -3.918873    3.702479   -1.389387
 O   -4.878202    4.692362   -1.191950
 C   -1.095258    2.653182    0.153815
 C    0.069066    1.693922    0.019119
 C    1.329376    2.120096    0.468239
 O    1.393889    3.331128    1.033840
 C    2.468267    1.302076    0.319922
 C    3.788349    1.769679    0.822373
 O    3.918346    2.854624    1.394629
 C    4.974208    0.889710    0.615393
 C    7.124319   -3.012156   -1.151408
 C   -2.547175   -2.163829   -0.758595
 C   -2.606183   -3.267118    0.288057
 C   -3.451540   -2.811716    1.477961
 N   -3.689208   -3.970003    2.405003
 C   -4.837273   -2.359752    0.996923
 O   -5.499529   -3.573365    0.640834
 C   -4.710523   -1.347806   -0.141865
 O   -3.830595   -1.789476   -1.184300
 C   -6.029197   -1.016532   -0.807399
 H    6.239695    2.299958    1.615376
 H    8.292456    0.934015    1.290315
 H    8.176740   -1.201359    0.100056
 H    1.760082   -1.981275   -1.424672
 H   -1.261451   -0.508865   -2.093905
 H   -2.108857    1.683924   -2.088092
 H   -3.408909    0.658920   -1.459763
 H   -3.058113    1.784114    1.821035
 H   -3.005758    4.124837   -1.837636
 H   -4.282928    2.936448   -2.091166
 H   -5.097155    4.660942   -0.245873
 H   -1.044962    3.168242    1.115821
 H   -1.013664    3.430269   -0.619570
 H    2.330337    3.462687    1.306948
 H    6.811689   -3.892335   -1.714676
 H    7.857458   -2.446967   -1.741140
 H    7.583371   -3.331412   -0.206963
 H   -2.030945   -2.524683   -1.660732
 H   -3.046269   -4.159344   -0.170767
 H   -1.583386   -3.499619    0.605249
 H   -2.949160   -1.994960    1.995551
 H   -4.506986   -4.470873    1.987676
 H   -2.867580   -4.595192    2.437659
 H   -3.928012   -3.647103    3.360886
 H   -5.381632   -1.869569    1.823954
 H   -6.416433   -3.371987    0.418108
 H   -4.282407   -0.449723    0.322801
 H   -6.768173   -0.670424   -0.075498
 H   -5.877965   -0.225935   -1.548541
 H   -6.425594   -1.895265   -1.325657
