31 
5mri_ligand_ani.xyz
 C    3.694824   -2.211432    0.420998
 C   -4.147909   -1.408719    0.913587
 C   -3.367244   -0.430107    0.034410
 C   -3.305688    0.944733    0.698659
 C   -1.977461   -1.011216   -0.271504
 C   -1.134380   -0.235297   -1.299089
 C    1.513987    1.638283    0.200848
 C    1.067240    0.397941   -0.205401
 C    1.675139   -0.952442   -0.166980
 N   -0.157242    0.685758   -0.734807
 N   -0.415399    1.980722   -0.668674
 N    0.596851    2.571200   -0.094042
 N    2.932134   -0.983711    0.337395
 O    2.688688    1.935762    0.805612
 O    1.086103   -1.959350   -0.560095
 H    3.059353   -3.028482    0.075578
 H    4.587833   -2.167376   -0.212973
 H    4.002326   -2.411738    1.453110
 H   -4.242508   -2.392235    0.438720
 H   -3.638702   -1.549559    1.875819
 H   -5.157392   -1.037431    1.123451
 H   -3.905990   -0.326684   -0.921547
 H   -2.752670    0.886929    1.646097
 H   -2.802790    1.684405    0.067110
 H   -4.313831    1.311703    0.924276
 H   -2.116450   -2.024909   -0.669253
 H   -1.410525   -1.130345    0.660865
 H   -1.770390    0.372409   -1.950042
 H   -0.584233   -0.941643   -1.920513
 H    3.346832   -0.117014    0.655306
 H    2.695361    2.892423    0.957572
