27 
5mro_ligand_xtb.xyz
 N   -1.106494   -0.293568   -1.435425
 C    0.034198   -0.986212   -1.218618
 C   -1.511528   -0.369138    0.995497
 C   -0.478094   -1.478659    1.136701
 C    1.834146   -2.039440   -1.353424
 C    0.385054    1.301333    0.985997
 C    2.767297    1.069531    0.727402
 C    1.529260    2.437330   -0.801434
 O   -0.339096   -2.145185    2.120558
 N    0.324784   -1.571402    0.008714
 N    1.477685   -2.253123   -0.117793
 N    0.975608   -1.276581   -2.072314
 C   -1.840961   -0.047374   -0.425685
Cl   -3.294024    0.794044   -0.692851
 C   -0.892937    0.901805    1.669104
 C    0.361958    2.142990   -0.119408
 C    2.732042    1.894325   -0.384476
 C    1.600664    0.774991    1.409192
 H   -2.408487   -0.640684    1.558452
 H    2.733416   -2.440696   -1.773199
 H    3.702472    0.646381    1.061315
 H    1.496272    3.084720   -1.664248
 H   -1.630311    1.704289    1.612975
 H   -0.707616    0.659240    2.716653
 H   -0.574835    2.567539   -0.451163
 H    3.640827    2.114327   -0.923675
 H    1.631761    0.121446    2.269522
