27 
5mro_ligand_ani.xyz
 N   -1.627175    0.471205   -1.229050
 C   -1.509420   -0.868988   -0.993811
 C   -0.891839    0.881933    1.144364
 C   -1.003840   -0.616259    1.421712
 C   -1.390429   -2.948657   -1.053673
 C    1.620539    0.691307    0.650394
 C    3.141801   -1.143476    0.208284
 C    2.983022    0.678210   -1.356691
 O   -0.851998   -1.110720    2.510040
 N   -1.243046   -1.368537    0.270670
 N   -1.164839   -2.720292    0.225427
 N   -1.607501   -1.863983   -1.841454
 C   -1.351567    1.241310   -0.243968
Cl   -1.533070    2.951485   -0.512635
 C    0.560563    1.353584    1.505189
 C    2.025069    1.283230   -0.548778
 C    3.549340   -0.533548   -0.974524
 C    2.176175   -0.541815    1.008445
 H   -1.577160    1.377828    1.844005
 H   -1.399276   -3.961886   -1.437288
 H    3.576638   -2.093606    0.508633
 H    3.289799    1.156417   -2.283676
 H    0.604915    2.442253    1.403743
 H    0.719758    1.120418    2.561922
 H    1.575165    2.227693   -0.853776
 H    4.302757   -1.005886   -1.600353
 H    1.827015   -1.042456    1.910464
