50 
5mts_ligand_xtb.xyz
 N    3.043916   -1.372011   -0.585186
 C    5.923152    1.482289    0.123848
 C    6.285356   -0.004824   -0.002099
 C    6.767436   -0.580461    1.336259
 C   -7.112586    3.560843    0.150936
 C    1.729243   -1.350499   -0.342925
 C   -0.209374   -0.596908    0.354742
 C   -3.155563   -1.562732   -0.026900
 C    3.953859   -0.355893   -0.112287
 C    3.577900    1.051961   -0.650568
 O    2.853374    1.779985    0.303150
 C    4.871751    1.832299   -0.945805
 O    4.647546    3.214204   -0.970408
 O    7.084286    2.250859   -0.057351
 O    5.219917   -0.760598   -0.559080
 O    5.778775   -0.399774    2.328499
 S    0.692912   -2.671217   -0.834355
 C   -0.665272   -1.767634   -0.187164
 N    1.113611   -0.368218    0.262384
 C   -1.973779   -2.402619   -0.222791
 O   -2.081817   -3.604000   -0.416923
 N   -5.375396   -1.081728    0.324840
 S   -3.188820    0.161505   -0.196786
 N   -5.031183    2.464540   -0.094022
 N   -7.762490    2.427899    0.381745
 C   -4.434922   -2.036040    0.238214
 C   -4.903747    0.107795    0.118386
 C   -5.679528    1.320963    0.134402
 C   -5.742220    3.576009   -0.086400
 C   -7.060789    1.312276    0.375478
 C   -4.815592   -3.457098    0.427137
 H    3.467284   -2.160724   -1.046157
 H    5.490329    1.679849    1.116881
 H    7.105803   -0.097432   -0.721477
 H    6.983142   -1.648689    1.200703
 H    7.691162   -0.053740    1.604306
 H   -7.705368    4.464368    0.158620
 H   -0.810097    0.137654    0.859103
 H    3.923495   -0.311546    0.990145
 H    2.993136    0.943247   -1.576725
 H    2.058911    1.253066    0.517918
 H    5.267913    1.554964   -1.929010
 H    3.967834    3.393438   -0.303048
 H    6.792251    3.117222   -0.378070
 H    6.139621   -0.669279    3.179503
 H   -5.199311    4.491869   -0.273932
 H   -7.586278    0.387744    0.562380
 H   -5.825468   -3.509327    0.823250
 H   -4.770760   -3.979070   -0.527698
 H   -4.116885   -3.955343    1.095367
