62 
5mty_ligand_ani.xyz
 C   -9.672274    0.161068    0.424215
 C  -10.969825   -0.420848    0.513724
 C  -10.941263   -1.777515    0.365807
 S   -9.354895   -2.369457    0.123890
 C   -8.693080   -0.775072    0.206249
 C   -7.222369   -0.643806    0.041523
 O   -6.510646   -1.634106   -0.037708
 N   -6.767046    0.645944   -0.020264
 C   -5.450425    1.083249   -0.236229
 C   -4.337172    0.262307   -0.347313
 C   -5.270445    2.463882   -0.353415
 F   -6.366464    3.245490   -0.235126
 C   -4.038467    3.028720   -0.596228
 C   -2.944932    2.181167   -0.708409
 F   -1.748331    2.724249   -0.996873
 C   -3.060959    0.797235   -0.560525
 N   -1.997930   -0.096595   -0.692878
 C   -0.669034    0.007870   -0.276313
 C    0.263243   -0.862589   -0.841693
 C   -0.235894    0.901015    0.705969
 C    1.098153    0.915514    1.061390
 C    2.048153    0.062294    0.480488
 C    3.457403    0.295547    0.957657
 O    3.646363    1.263377    1.677690
 C    1.607079   -0.852375   -0.491419
 C    2.517377   -1.858073   -1.157948
 C    3.403659   -2.610728   -0.156805
 C    4.672983   -1.862893    0.150211
 C    5.901603   -2.491361   -0.057099
 C    7.103584   -1.834938    0.154728
 C    4.664720   -0.536726    0.608547
 C    5.881703    0.105190    0.849396
 C    7.093982   -0.512205    0.597239
 C    8.342028    0.278798    0.860682
 O    8.357469    1.209411    1.654161
 N    9.433381   -0.102621    0.144234
 C   10.709971    0.563057    0.265052
 C   11.195145    1.004999   -1.104227
 O   11.167793   -0.145630   -1.937245
 H   -9.497617    1.227982    0.537457
 H  -11.880221    0.145422    0.679931
 H  -11.780916   -2.460496    0.388955
 H   -7.432717    1.403182    0.011444
 H   -4.459797   -0.809459   -0.260904
 H   -3.919048    4.100802   -0.702235
 H   -2.262425   -1.012137   -1.031959
 H   -0.078792   -1.577081   -1.589742
 H   -0.930139    1.584626    1.185039
 H    1.451885    1.614945    1.810207
 H    3.151021   -1.355610   -1.899398
 H    1.892475   -2.569988   -1.710380
 H    3.666664   -3.597625   -0.554539
 H    2.836231   -2.781433    0.765877
 H    5.910200   -3.518779   -0.415699
 H    8.040886   -2.365673    0.001688
 H    5.861219    1.113330    1.248341
 H    9.335764   -0.715357   -0.653099
 H   11.446773   -0.109685    0.722965
 H   10.573815    1.417068    0.931984
 H   12.211723    1.420011   -1.028053
 H   10.530107    1.790709   -1.493586
 H   11.349833    0.130675   -2.842903
