23 
5muc_ligand_dft.xyz
 O   -2.534946    1.157495    0.006897
 C   -0.135033    0.981569    0.165495
 C    1.067541    0.150830   -0.272873
 O    0.090909    2.329332   -0.166097
 C    2.354893    0.513494    0.446842
 O    0.818575   -1.224552    0.024821
 O    3.424183   -0.292628    0.016214
 C   -1.414560    0.462293   -0.496376
 C   -1.556715   -1.049268   -0.292994
 O   -1.855992   -1.314059    1.071162
 C   -0.270005   -1.748053   -0.715787
 H   -2.758247    0.707913    0.837347
 H   -0.245522    0.866757    1.259021
 H    1.218243    0.266442   -1.357780
 H   -0.757111    2.778607   -0.041369
 H    2.189238    0.422476    1.533176
 H    2.610775    1.552057    0.227994
 H    3.117181   -1.205578    0.095644
 H   -1.356449    0.687363   -1.568399
 H   -2.407443   -1.421161   -0.872097
 H   -1.008524   -1.328020    1.539380
 H   -0.099267   -1.621359   -1.795591
 H   -0.321436   -2.815388   -0.487142
