23 
5muc_ligand_ani.xyz
 O   -2.543371    1.135225    0.036278
 C   -0.146561    0.980903    0.162823
 C    1.057694    0.159729   -0.271143
 O    0.054746    2.328037   -0.200584
 C    2.340333    0.527717    0.462226
 O    0.825757   -1.224275    0.008275
 O    3.414454   -0.267040    0.018261
 C   -1.424049    0.451852   -0.489974
 C   -1.544858   -1.056640   -0.289255
 O   -1.791456   -1.328315    1.086322
 C   -0.262485   -1.739150   -0.739759
 H   -2.749809    0.679672    0.868300
 H   -0.253719    0.885685    1.259280
 H    1.212714    0.288136   -1.354933
 H   -0.785053    2.773798   -0.017526
 H    2.179900    0.417742    1.548506
 H    2.594909    1.571912    0.261673
 H    3.111602   -1.182754    0.100243
 H   -1.378872    0.679176   -1.563198
 H   -2.407924   -1.430881   -0.848515
 H   -0.920041   -1.380446    1.508143
 H   -0.094727   -1.583742   -1.815809
 H   -0.310462   -2.813821   -0.544097
