63 
5mw2_ligand_ani.xyz
 C   -5.211978    2.263072   -1.149043
 C   -3.951383    1.432689   -0.923473
 C   -3.629904   -4.158742    1.432474
 C   -3.978274   -1.917002    0.565927
 C    0.491602   -3.867812    0.534684
 C   -1.716690   -2.880819    0.549498
 C    0.195089   -1.643599   -0.319156
 C    3.263677   -1.628244   -0.369645
 C    3.663844    0.609751   -0.079103
 C    5.403114   -0.656886   -0.778719
 C    1.897603    1.856674    1.027202
 C   -7.626674    2.354722   -0.819337
 N   -6.347504    1.689679   -0.695473
 O   -5.144616    3.348306   -1.704391
 O   -4.313575    0.231690   -0.269927
 O   -5.170800   -1.999642    0.820031
 N   -3.080013   -2.949668    0.831317
 C   -3.376864   -0.710713   -0.050764
 C   -2.063642   -0.619620   -0.333417
 C   -0.851901   -3.953593    0.830205
 C   -1.178802   -1.719081   -0.036689
 C    1.036552   -2.699011   -0.033065
 N    2.417202   -2.696911   -0.319796
 N    3.132957    1.822132    0.257299
Cl    5.256656   -3.343700   -1.185238
 N    2.815301   -0.427414   -0.035989
 N    4.951121    0.555460   -0.448073
 C    4.615963   -1.789304   -0.755323
 C    1.109534    3.129414    0.731150
 C    2.001603    4.345275    0.975348
 C    3.283031    4.270878    0.146560
 C    4.015817    2.963822    0.447272
 C   -0.173042    3.178503    1.559239
 C    4.192509    5.475012    0.387507
 H   -3.250167    2.021392   -0.318536
 H   -3.491982    1.236841   -1.899391
 H   -3.469314   -5.024869    0.780683
 H   -3.167885   -4.352932    2.406829
 H   -4.698886   -4.000451    1.564861
 H    1.145255   -4.709238    0.755190
 H    0.594582   -0.744276   -0.772713
 H    6.448387   -0.726208   -1.077204
 H    2.118576    1.808491    2.109854
 H    1.303579    0.975602    0.781124
 H   -8.020304    2.644518    0.161260
 H   -7.477916    3.254074   -1.419762
 H   -8.353162    1.705082   -1.317682
 H   -6.274321    0.785237   -0.252239
 H   -1.639550    0.268953   -0.792600
 H   -1.230006   -4.867435    1.277167
 H    2.835476   -3.604739   -0.465950
 H    0.846808    3.109966   -0.336288
 H    2.260243    4.399840    2.046452
 H    1.453986    5.267817    0.739047
 H    2.994926    4.243695   -0.914362
 H    4.397136    2.981692    1.484366
 H    4.876705    2.841305   -0.209965
 H   -0.800993    2.299286    1.370630
 H   -0.764670    4.071148    1.327388
 H    0.060574    3.196553    2.631652
 H    4.499074    5.522341    1.440518
 H    5.100724    5.416459   -0.223146
 H    3.683743    6.414680    0.145175
