35 
5mw6_ligand_xtb.xyz
 N    2.700270   -0.779986    0.037854
 N    0.728479    0.447183    0.018126
 C    0.114053    1.626330    0.006917
 C    2.234089   -2.009203    0.445437
 C    3.298510   -2.864148    0.351675
 C    4.381836   -2.082859   -0.124196
 C   -2.198426    0.713722   -0.010161
 C   -4.200447   -1.200383   -0.131250
 C    0.854631   -2.285402    0.912063
 C   -4.487540    0.060303    0.369263
 C   -2.926928   -1.504331   -0.585816
 C    5.767672   -2.533127   -0.408491
 C    2.059150    0.438039   -0.006570
 N    4.004487   -0.841002   -0.296285
 N    2.845041    1.502947   -0.075058
 C    0.883562    2.813625   -0.030540
 N   -1.236137    1.714147    0.054515
 C    2.254215    2.684955   -0.088306
Cl    0.114896    4.367232   -0.017906
Cl   -5.445079   -2.398273   -0.198071
 C   -1.930442   -0.549431   -0.530168
 C   -3.489380    1.012319    0.426078
 H    3.312123   -3.907932    0.591671
 H    0.443803   -1.432965    1.445366
 H    0.200925   -2.497734    0.067608
 H    0.864346   -3.156809    1.562755
 H   -5.483635    0.292396    0.711221
 H   -2.719712   -2.483260   -0.988692
 H    6.222651   -2.941928    0.492633
 H    5.763337   -3.312515   -1.169183
 H    6.355680   -1.690289   -0.758377
 H   -1.584287    2.657223    0.184333
 H    2.906480    3.545607   -0.139728
 H   -0.940314   -0.765873   -0.891029
 H   -3.710596    1.996308    0.813368
