35 
5mw6_ligand_ani.xyz
 N    2.629165   -0.836466    0.085469
 N    0.731547    0.488095    0.009009
 C    0.171091    1.697342   -0.023473
 C    2.053275   -2.037852    0.421022
 C    3.049123   -2.972138    0.307861
 C    4.205372   -2.259875   -0.092093
 C   -2.151316    0.795087   -0.070214
 C   -4.154538   -1.142918   -0.118276
 C    0.634522   -2.262118    0.828188
 C   -4.402135    0.086372    0.482024
 C   -2.922164   -1.404569   -0.700859
 C    5.570031   -2.813770   -0.357123
 C    2.060094    0.432558    0.023772
 N    3.950385   -0.974802   -0.211507
 N    2.917893    1.444381   -0.021060
 C    0.992240    2.844121   -0.028507
 N   -1.185878    1.814835   -0.030636
 C    2.361021    2.653867   -0.035691
Cl    0.314510    4.440507   -0.037271
Cl   -5.402198   -2.356689   -0.143626
 C   -1.921794   -0.437234   -0.685299
 C   -3.404168    1.049938    0.495255
 H    2.962697   -4.033955    0.498962
 H    0.270026   -1.481170    1.498518
 H   -0.020147   -2.288188   -0.048327
 H    0.556836   -3.233582    1.322046
 H   -5.369925    0.287972    0.930835
 H   -2.744667   -2.369997   -1.167579
 H    5.949503   -3.352425    0.517395
 H    5.548109   -3.519514   -1.194370
 H    6.262511   -2.003087   -0.599478
 H   -1.543404    2.754998    0.066570
 H    3.034869    3.508478   -0.054668
 H   -0.966264   -0.632692   -1.156366
 H   -3.595166    2.013082    0.963274
