41 
5mwa_ligand_ani.xyz
 C   -3.940810    1.645409    0.381187
 C   -5.324527    1.605863    0.510753
 C   -6.007246    0.399553    0.370455
 C   -5.302579   -0.777291    0.104889
 C   -3.916968   -0.744723    0.006802
 C   -3.237276    0.463026    0.132003
 C   -5.973166   -2.113580   -0.025338
 O   -5.429170   -3.154585    0.232999
 O   -7.252338   -2.102478   -0.459509
 C    0.169736    1.395412   -0.105400
 O   -1.160906    1.660708    0.041519
 C   -1.780008    0.465123    0.014790
 N   -0.971564   -0.536091   -0.110612
 C    0.291295    0.020720   -0.142786
 C    3.743189   -2.469297   -0.178213
 C    2.560473   -2.890961   -0.781837
 C    1.433540   -2.085992   -0.760722
 C    1.479661   -0.832254   -0.150469
 C    2.657405   -0.421196    0.473855
 C    3.787939   -1.228740    0.458915
Cl    5.227951   -0.659542    1.231272
 C    2.739239    4.760758   -0.505266
 C    1.544443    4.868874    0.203078
 C    0.700349    3.773068    0.326229
 C    1.052714    2.544596   -0.245283
 C    2.246086    2.448238   -0.965748
 C    3.085623    3.549386   -1.094909
Cl    5.125576   -3.508276   -0.231871
 H   -3.401608    2.583011    0.479706
 H   -5.877952    2.519543    0.712588
 H   -7.087291    0.381212    0.509012
 H   -3.366893   -1.665930   -0.163491
 H   -7.493266   -1.217765   -0.766222
 H    2.535586   -3.862665   -1.264773
 H    0.508454   -2.422604   -1.217680
 H    2.704021    0.542210    0.967832
 H    3.395605    5.621584   -0.601100
 H    1.266756    5.816615    0.658621
 H   -0.235090    3.865767    0.871334
 H    2.515730    1.503683   -1.429084
 H    4.011585    3.455762   -1.654246
