40 
5mwd_ligand_ani.xyz
 C   -1.576401    2.814959   -0.001279
 C   -0.706971    1.708298    0.080386
 C   -2.530445    0.354325   -0.030959
 C   -3.332445   -3.102146   -0.280982
 N    4.773051   -1.824718    0.472432
 C    1.628823    0.880725    0.263073
 C    2.409946   -1.251538    1.128153
 C    3.859596    0.143213   -0.231277
 C    5.259768    0.088251   -0.780001
 C   -2.367450   -2.129765   -0.287330
 N   -3.434052    1.326097   -0.077018
 C    3.626620   -1.024483    0.504182
 N   -3.032315   -0.942536   -0.095797
 C    2.874640    1.100553   -0.343633
 N   -4.376501   -1.129126    0.014659
 C   -0.894589   -2.315691   -0.444876
 C   -4.561452   -2.427591   -0.085365
 C    5.797350   -1.251853   -0.263265
 C    1.413518   -0.290073    1.001859
 N   -1.211713    0.474971    0.075319
Cl   -0.969133    4.438866   -0.008865
 O    6.889638   -1.737459   -0.445372
 N    0.643228    1.877991    0.142913
 C   -2.933761    2.560413   -0.065887
 C   -5.927602   -3.032743   -0.001920
 H   -3.176960   -4.165606   -0.407977
 H    4.879981   -2.720306    0.925467
 H    2.231156   -2.163329    1.694638
 H    5.905171    0.896057   -0.423815
 H    5.304251    0.093767   -1.872838
 H    3.047953    2.013109   -0.912032
 H   -0.707212   -3.298815   -0.883356
 H   -0.442510   -1.542523   -1.068874
 H   -0.399835   -2.293331    0.531716
 H    0.453016   -0.443288    1.481785
 H    0.975344    2.824291    0.013891
 H   -3.645123    3.382997   -0.113986
 H   -6.182238   -3.548575   -0.933921
 H   -5.979523   -3.769547    0.806464
 H   -6.672095   -2.253808    0.183698
