64 
5mwh_ligand_dft.xyz
 C   -3.784008   -2.992687   -0.046545
 C   -4.327558   -4.445928    1.940472
 C    4.321607    1.339856    1.944352
 C    3.164578   -2.839577   -1.778972
 C   -3.775743    0.367728    1.323243
 C   -1.830430   -0.647716    2.303750
 C   -3.047527    1.522150    1.053199
 C   -1.087702    0.496065    2.043657
 C    2.041383    1.460155    0.270370
 C    1.454119   -0.577667   -1.514516
 C   -1.791772    0.944606   -4.256386
 C   -2.955211    0.038503   -2.451701
 C   -0.450748    0.607075   -3.614422
 C   -1.655381   -0.332839   -1.754262
 C   -3.974456   -1.975743    2.270961
 C   -3.183455   -0.729128    1.954452
 C    0.888815    1.530339   -0.504487
 C   -1.706544    1.577538    1.418936
 C    0.587503    0.504529   -1.404922
 C    4.911061   -0.782735    0.928905
 C    4.599548   -1.903729   -0.066537
 C    2.889781    0.358230    0.185032
 C    2.600805   -0.673932   -0.728375
 C   -3.564402   -3.214232    1.450058
 N    0.019645    2.644827   -0.435141
 N   -0.617653    0.615359   -2.162253
 N    4.031396    0.276758    0.990207
 N    3.460895   -1.775025   -0.832296
 O    5.902313   -0.865977    1.620079
 O    5.349658   -2.852053   -0.145572
 O   -1.670252    4.092909    0.672844
 O    0.282541    3.176232    2.021313
 O   -2.796575    0.038752   -3.854474
 S   -0.749927    3.023945    1.011273
 H   -4.841621   -2.789341   -0.258180
 H   -3.197863   -2.144320   -0.410873
 H   -3.491375   -3.876968   -0.622310
 H   -4.148429   -4.630198    3.005420
 H   -5.407463   -4.314763    1.798839
 H   -4.025105   -5.341113    1.386941
 H    5.221999    1.055237    2.484198
 H    4.492230    2.286099    1.422453
 H    3.491122    1.458275    2.646404
 H    3.136327   -2.446354   -2.799964
 H    3.958788   -3.578492   -1.695789
 H    2.204011   -3.307542   -1.541292
 H   -4.826979    0.324533    1.051599
 H   -1.356269   -1.487091    2.805712
 H   -3.513071    2.380678    0.580380
 H   -0.045873    0.561468    2.337991
 H    2.253326    2.277485    0.944953
 H    1.209146   -1.364307   -2.218054
 H   -1.726259    0.876261   -5.345023
 H   -2.074982    1.973816   -3.981522
 H   -3.280619    1.032114   -2.101442
 H   -3.739782   -0.687631   -2.224624
 H    0.299828    1.354165   -3.890501
 H   -0.112039   -0.376785   -3.983977
 H   -1.380925   -1.369049   -2.021370
 H   -1.776138   -0.282176   -0.668918
 H   -5.043101   -1.783875    2.109692
 H   -3.856947   -2.207269    3.337373
 H   -2.491592   -3.387646    1.615317
 H   -0.678580    2.574156   -1.178513
