47 
5mwp_ligand_ani.xyz
 C    6.416958   -3.120446   -0.967257
 C    4.475745   -1.929064   -0.070792
 O    4.769602   -2.249807    1.072794
 C    3.006876    0.212021    1.733416
 C    2.233583    1.962578    0.370886
 C    2.335954    3.301909    0.014313
 C    1.348266    3.854992   -0.775351
 C    0.271661    3.107411   -1.231661
 C    0.180421    1.771317   -0.868588
 C    1.138024    1.179617   -0.038625
 C   -1.376619   -0.594850    0.351300
 C   -1.725368    0.393050    1.278078
 C   -3.053357    0.766533    1.429024
 C   -4.036231    0.142744    0.673870
 C   -6.302164   -0.460563    0.592612
 N    5.258032   -2.266945   -1.132153
 C    3.232472   -1.123240   -0.432512
 C    2.361779   -0.777040    0.777642
 O    3.271283    1.446894    1.085226
 F    1.440620    5.149180   -1.121811
 N    1.086584   -0.176609    0.364718
 C    0.036624   -1.059285    0.149510
 O    0.263248   -2.220339   -0.157282
 O   -5.333063    0.559346    0.785076
 C   -6.060303   -1.314590   -0.643084
 O   -6.959757   -1.851735   -1.256636
 N   -4.738063   -1.474016   -0.954583
 C   -3.698214   -0.872063   -0.229563
 C   -2.369389   -1.242357   -0.379632
 H    7.099765   -2.967389   -1.806371
 H    6.144729   -4.181975   -0.911018
 H    6.923070   -2.853819   -0.037301
 H    3.964404   -0.157870    2.100148
 H    2.323011    0.377508    2.576105
 H    3.184092    3.888769    0.347406
 H   -0.477973    3.575391   -1.859847
 H   -0.658983    1.187770   -1.230710
 H   -0.948466    0.888802    1.851828
 H   -3.350455    1.543313    2.125682
 H   -6.330324   -1.123062    1.470249
 H   -7.268709    0.033165    0.492255
 H    4.936731   -2.058512   -2.063514
 H    3.528585   -0.202253   -0.951262
 H    2.615424   -1.700065   -1.130246
 H    2.128670   -1.692894    1.321033
 H   -4.530323   -2.100769   -1.721669
 H   -2.085526   -2.042666   -1.057282
