60 
5mwy_ligand_ani.xyz
 C    0.867523   -0.645567   -0.149940
 C    0.026387   -1.307368   -1.164027
 C    3.134041   -0.081446    0.774165
 C   -1.218452    0.564892    0.542587
 C    1.107391    1.413366    1.271115
 C   -3.475077   -0.080018    0.115102
 C   -1.490425   -1.186524   -1.206479
 C    2.479652    0.902957    1.722018
 C    4.458871   -0.014640    0.569071
 C    1.156517    2.441173    0.150142
 C   -5.626567   -0.736287   -0.421444
 C   -3.516622    0.772921    1.404333
 C    5.221092   -0.986233   -0.249812
 C   -3.899950    0.754325   -1.106876
 C   -1.967751   -1.793807    1.166288
 O    2.307344    2.449604   -0.539662
 C    2.358813    3.412159   -1.595406
 O    0.729939   -0.090693   -1.448412
 C    0.207334    0.197086    0.937310
 C    2.275484   -1.194485    0.197805
 C   -2.046435   -0.665426    0.126556
 O   -4.465433   -1.130178    0.158496
 C   -2.061479    1.270207    1.616724
 C    2.961088   -1.749790   -1.076241
 O    0.256567    3.220129   -0.085155
 O   -6.622523   -1.402981   -0.390609
 O    6.421914   -0.884379   -0.408778
 C   -5.419706    0.622630   -1.076095
 C    4.418841   -2.122332   -0.851277
 C    2.117352   -2.327200    1.235880
 H    0.434285   -2.164504   -1.696236
 H   -1.158803    1.221141   -0.333038
 H    0.643484    1.961719    2.100203
 H   -1.713433   -0.489930   -2.020307
 H   -1.957043   -2.146179   -1.452127
 H    2.346903    0.401621    2.692132
 H    3.151941    1.745915    1.897103
 H    5.053545    0.768468    1.032525
 H   -3.847802    0.141945    2.234364
 H   -4.236923    1.593304    1.317827
 H   -3.522489    0.314796   -2.032517
 H   -3.542759    1.786047   -1.041049
 H   -2.162407   -1.438753    2.183221
 H   -2.698663   -2.568662    0.929725
 H   -0.977325   -2.257946    1.156101
 H    1.517734    3.276472   -2.280547
 H    3.305898    3.237421   -2.106483
 H    2.320317    4.427475   -1.190837
 H    0.157392   -0.397343    1.858753
 H   -1.716114    1.015526    2.626434
 H   -1.969375    2.356210    1.511838
 H    2.883086   -1.001041   -1.869442
 H    2.423541   -2.640590   -1.417654
 H   -5.899432    0.655023   -2.056878
 H   -5.893462    1.385054   -0.448124
 H    4.901144   -2.414907   -1.788570
 H    4.505084   -2.989726   -0.180218
 H    3.086525   -2.748098    1.518852
 H    1.492375   -3.130848    0.829571
 H    1.642793   -1.955190    2.149356
