60 
5mwy_ligand_xtb.xyz
 C    0.844486   -0.597273   -0.128607
 C   -0.001246   -1.220456   -1.161175
 C    3.081884   -0.074729    0.855569
 C   -1.237715    0.582553    0.612377
 C    1.083125    1.387295    1.330164
 C   -3.486859   -0.018435    0.157482
 C   -1.518642   -1.139987   -1.179382
 C    2.423987    0.853662    1.833861
 C    4.390916    0.048083    0.607520
 C    1.215134    2.273101    0.098553
 C   -5.582302   -0.659221   -0.530476
 C   -3.512395    0.760534    1.490922
 C    5.169262   -0.819310   -0.272364
 C   -3.858137    0.907005   -1.016869
 C   -2.018103   -1.793343    1.154598
 O    2.388010    2.135051   -0.506003
 C    2.562442    2.836576   -1.728219
 O    0.705804   -0.028589   -1.405625
 C    0.181352    0.184123    0.998891
 C    2.237540   -1.163158    0.223908
 C   -2.062595   -0.629518    0.155117
 O   -4.491941   -1.035938    0.146528
 C   -2.066493    1.224371    1.734245
 C    2.936198   -1.668668   -1.051030
 O    0.345690    3.020213   -0.272698
 O   -6.557048   -1.345430   -0.625654
 O    6.345060   -0.629345   -0.500249
 C   -5.367480    0.726759   -1.118075
 C    4.408928   -1.991814   -0.844507
 C    2.072456   -2.320607    1.224535
 H    0.397628   -2.075589   -1.699377
 H   -1.178080    1.280072   -0.226665
 H    0.599652    1.989105    2.105470
 H   -1.778751   -0.472537   -2.001558
 H   -1.930369   -2.125714   -1.399265
 H    2.244143    0.310972    2.767992
 H    3.098917    1.680671    2.056747
 H    4.955353    0.845596    1.071415
 H   -3.854499    0.089857    2.278530
 H   -4.209187    1.595776    1.445716
 H   -3.393371    0.576909   -1.944272
 H   -3.554977    1.932985   -0.824896
 H   -2.129486   -1.451617    2.178264
 H   -2.831052   -2.480836    0.936515
 H   -1.078705   -2.332281    1.065284
 H    1.939497    2.382075   -2.500708
 H    3.615384    2.745174   -1.982512
 H    2.279464    3.884397   -1.609696
 H    0.136744   -0.447274    1.890552
 H   -1.716383    0.896346    2.713452
 H   -1.983433    2.308944    1.696203
 H    2.846598   -0.892499   -1.814068
 H    2.433995   -2.566673   -1.415994
 H   -5.758047    0.780219   -2.131755
 H   -5.916644    1.442823   -0.503760
 H    4.869525   -2.290222   -1.787908
 H    4.529117   -2.827222   -0.148923
 H    3.045658   -2.720281    1.495868
 H    1.479669   -3.116761    0.778937
 H    1.582587   -1.995377    2.137784
