28 
5mxk_ligand_ani.xyz
 C    3.907528   -0.105489   -0.110546
 C    0.405870    1.494581    0.011810
 C    1.411078    0.525917   -0.051627
 C    1.067877   -0.832009   -0.107170
 C   -0.278681   -1.178784   -0.083855
 C   -1.278381   -0.206951   -0.017569
 C   -0.931187    1.148711    0.030733
 N   -2.616215   -0.647767   -0.003584
 C   -3.765387    0.100472    0.031622
 C   -5.043045   -0.715812   -0.000437
 O   -3.796289    1.316687    0.084385
 C    2.147725   -1.886886   -0.207585
 C    3.437951   -1.433043    0.475210
 C    2.835654    0.970773   -0.051370
 O    3.127742    2.150594   -0.025700
 H    4.169835   -0.235231   -1.170848
 H    4.796904    0.282570    0.394418
 H    0.707436    2.537223    0.047588
 H   -0.556967   -2.231282   -0.117419
 H   -1.707356    1.900243    0.081722
 H   -2.735071   -1.648987   -0.041018
 H   -5.621073   -0.480229    0.896201
 H   -5.630015   -0.394347   -0.864032
 H   -4.885789   -1.796496   -0.054204
 H    2.355135   -2.085637   -1.269140
 H    1.787139   -2.828473    0.222155
 H    3.260227   -1.319154    1.552834
 H    4.219484   -2.192963    0.362051
