28 
5mxk_ligand_xtb.xyz
 C    3.869533   -0.133488   -0.136895
 C    0.419408    1.494642    0.023043
 C    1.422032    0.525282   -0.046494
 C    1.061767   -0.826642   -0.108100
 C   -0.279536   -1.162599   -0.105223
 C   -1.276606   -0.188909   -0.040865
 C   -0.915076    1.156262    0.025788
 N   -2.600751   -0.625180   -0.040716
 C   -3.752062    0.112469    0.032775
 C   -5.009897   -0.731410    0.016510
 O   -3.784114    1.317877    0.103041
 C    2.113811   -1.893195   -0.181587
 C    3.391972   -1.428164    0.506111
 C    2.829900    0.965192   -0.056666
 O    3.145047    2.135718   -0.025227
 H    4.072729   -0.302541   -1.199672
 H    4.792532    0.227346    0.320160
 H    0.721431    2.529969    0.072738
 H   -0.561105   -2.207098   -0.151384
 H   -1.677931    1.913773    0.079405
 H   -2.703573   -1.629195   -0.097874
 H   -5.595562   -0.496635    0.902678
 H   -5.604730   -0.450382   -0.850118
 H   -4.809042   -1.798300   -0.013220
 H    2.327850   -2.107437   -1.234570
 H    1.744007   -2.814926    0.272369
 H    3.194471   -1.259216    1.567274
 H    4.165246   -2.194503    0.424325
