26 
5mxr_ligand_ani.xyz
 C    1.376010    0.401084    0.145611
 C    2.420663   -0.434374   -0.158073
 N    3.343195    0.070077   -1.041932
 C    3.015368    1.266711   -1.389704
 C    2.581868   -1.789719    0.411078
 O   -0.832391    2.222529    0.726100
 C   -2.141073    0.052475    0.040310
 C   -1.961959    0.262821   -1.324023
 O    1.805564   -2.270902    1.212792
 O    3.651567   -2.460821   -0.017521
 S    1.557719    1.909531   -0.684429
 N    0.371883    0.059317    1.022206
 S   -1.075475    0.870607    1.199539
 O   -1.547024    0.572113    2.537278
 C   -3.134143   -0.794434    0.522106
 C   -3.958453   -1.451879   -0.384542
 C   -3.786176   -1.258904   -1.753449
 C   -2.790442   -0.403683   -2.220288
 H    3.592175    1.869748   -2.080899
 H   -1.192757    0.943420   -1.681574
 H    4.128944   -1.887568   -0.644657
 H    0.474965   -0.850201    1.473023
 H   -3.247335   -0.922428    1.595156
 H   -4.737585   -2.115802   -0.020809
 H   -4.431698   -1.776218   -2.459090
 H   -2.659878   -0.252855   -3.288180
