44 
5myg_ligand_ani.xyz
 C    2.005889   -0.346549    0.327444
 C   -2.677295    1.969034    0.031858
 C   -3.414105    1.932440   -1.151048
 C    2.513013    0.682275    1.189649
 C   -3.796558    0.713236   -1.712707
 C   -3.424108   -0.461363   -1.077137
 C    4.558501    0.850949   -0.134678
 C    4.875239   -0.601570   -2.067090
 C   -2.666953   -0.440043    0.091810
 C   -2.291858    0.787386    0.664702
 C   -3.788545    3.172469   -1.780169
 C    2.802424   -0.751387   -0.756282
 C    3.709795    1.271825    0.997572
 N   -4.090331    4.170379   -2.285555
 O   -1.573625    0.784608    1.806183
 C   -1.499292    1.986999    2.542872
 S   -2.254865   -2.035342    0.769544
 O   -1.825940   -1.892830    2.144201
 O   -3.318679   -2.949813    0.398772
 N   -0.962161   -2.557864   -0.141427
 C    0.281152   -1.908723   -0.306607
 C    0.747417   -0.941294    0.551248
 C    2.313385   -1.751354   -1.613942
 C    1.076341   -2.316626   -1.391654
 C    4.274829    2.356336    1.858688
 O    5.654272    1.351194   -0.354297
 N    4.044315   -0.161623   -0.953750
 H   -2.407813    2.930791    0.449870
 H    1.886238    0.984824    2.027379
 H   -4.380646    0.689793   -2.625601
 H   -3.735439   -1.420069   -1.479498
 H    5.799227   -0.027634   -2.038512
 H    5.107234   -1.668751   -1.976643
 H    4.367741   -0.424093   -3.022022
 H   -0.894336    2.735581    2.018213
 H   -2.499394    2.391464    2.735748
 H   -1.019767    1.728402    3.487005
 H   -1.243195   -3.197937   -0.873036
 H    0.159967   -0.624008    1.401691
 H    2.901069   -2.090722   -2.460128
 H    0.708787   -3.090113   -2.062712
 H    3.610906    2.589867    2.696650
 H    5.253024    2.064324    2.253632
 H    4.437629    3.267980    1.274339
