34 
5myl_ligand_dft.xyz
 C   -0.467785   -1.252310   -0.000001
 N    0.915249   -1.164954    0.000001
 C    1.775425   -2.230155    0.000004
 C    3.633902   -0.433688    0.000003
 C    4.084695    1.622936   -1.212286
 C    3.785469    0.265028    1.201578
 C   -4.172211    2.869961    0.000009
 C   -5.503205    2.467309    0.000004
 C   -5.773554    1.101513   -0.000004
 N   -4.832649    0.159855   -0.000008
 C   -3.552440    0.556659    0.000001
 C   -3.176764    1.902427    0.000009
 C   -2.533770   -0.510055   -0.000001
 C   -2.802200   -1.844279   -0.000005
 S   -1.338754   -2.760905   -0.000005
 N   -1.194269   -0.177925    0.000004
 C    3.266945   -1.896397    0.000007
 C    3.785457    0.265024   -1.201575
 C    4.230324    2.280338   -0.000005
 C    4.084707    1.622941    1.212280
 F    4.519760    3.588485   -0.000009
 O    1.382831   -3.382595    0.000004
 H    1.277820   -0.220398    0.000004
 H    4.207047    2.171136   -2.139677
 H    3.668068   -0.260553    2.145637
 H   -3.911964    3.924424    0.000014
 H   -6.314061    3.188027    0.000005
 H   -6.801556    0.744668   -0.000011
 H   -2.124711    2.162375    0.000013
 H   -3.775385   -2.312068   -0.000007
 H    3.685450   -2.405832   -0.874411
 H    3.685443   -2.405827    0.874431
 H    3.668047   -0.260562   -2.145631
 H    4.207068    2.171143    2.139668
