34 
5myl_ligand_xtb.xyz
 C   -0.470764   -1.071043    0.250784
 N    0.835040   -0.989520    0.665438
 C    1.729374   -2.003064    0.474870
 C    3.601422   -0.364682    0.488357
 C    4.436816    0.972155   -1.336242
 C    3.584179    0.765721    1.297499
 C   -4.570997    2.593310    0.585793
 C   -5.788278    2.158085    0.082613
 C   -5.854331    0.877764   -0.448228
 N   -4.827071    0.053312   -0.500838
 C   -3.657250    0.469439   -0.017210
 C   -3.485457    1.739565    0.537953
 C   -2.543673   -0.464565   -0.090339
 C   -2.597976   -1.717714   -0.633482
 S   -1.076420   -2.511298   -0.531267
 N   -1.318976   -0.117262    0.408232
 C    3.121941   -1.693429    1.001716
 C    4.028217   -0.247292   -0.830418
 C    4.411754    2.078904   -0.505999
 C    3.991398    1.994506    0.808211
 F    4.809271    3.271776   -0.990398
 O    1.416549   -3.041318   -0.059619
 H    1.121779   -0.116026    1.086264
 H    4.771607    1.074272   -2.356093
 H    3.264144    0.687991    2.327169
 H   -4.472513    3.583537    1.007817
 H   -6.660520    2.792719    0.100709
 H   -6.779900    0.489342   -0.854216
 H   -2.515911    2.023860    0.913225
 H   -3.452080   -2.185184   -1.076057
 H    3.781669   -2.499434    0.678653
 H    3.081110   -1.692319    2.093094
 H    4.039300   -1.121181   -1.464114
 H    3.987002    2.876104    1.429264
