31 
5myr_ligand_ani.xyz
 C    0.969862   -0.122168    0.079932
 N   -0.100082   -0.993841    0.129139
 C   -1.433214   -0.666699    0.086169
 C   -3.288112    0.498701    0.023455
 C   -5.487323    1.467070   -0.055988
 C   -3.870726   -0.779088    0.005737
 C    6.857138    0.699022   -0.004457
 C    7.174361   -0.650654   -0.089640
 C    6.123339   -1.561940   -0.128910
 N    4.839773   -1.217596   -0.090373
 C    4.537371    0.082545   -0.013995
 C    5.523434    1.076363    0.034702
 C    3.095158    0.419831    0.014384
 C    2.562586    1.673295   -0.015331
 S    0.837884    1.609344    0.026613
 N    2.174949   -0.601522    0.068966
 N   -1.892928    0.531320    0.065837
 C   -4.113243    1.626752   -0.005940
 C   -6.026914    0.179354   -0.075962
 C   -5.249855   -0.962779   -0.046343
 S   -2.605311   -1.983328    0.055262
 F   -7.361854    0.051958   -0.126408
 H    0.175479   -1.967401    0.152473
 H   -6.154487    2.322276   -0.080962
 H    7.639440    1.452354    0.030833
 H    8.203716   -0.993980   -0.123616
 H    6.319353   -2.631172   -0.194206
 H    5.263119    2.128661    0.105675
 H    3.077937    2.623611   -0.069169
 H   -3.664716    2.616371    0.010045
 H   -5.719480   -1.940766   -0.065266
