35 
5mys_ligand_ani.xyz
 C    1.256559    0.934216   -0.953994
 C   -4.635782   -0.023913    0.225586
 C   -6.941712   -0.688245    0.286107
 C   -2.634233   -1.564970    0.200583
 C    5.669561   -1.610541    0.898436
 C    4.618189   -1.662897   -0.010031
 C    4.103128   -0.475031   -0.526007
 C    4.603518    0.761556   -0.133188
 C    5.652361    0.770676    0.774052
 C    6.200917   -0.389130    1.300211
 F    6.154720    1.954849    1.160341
 O    3.112251   -0.534630   -1.480992
 C    1.786681   -0.495354   -1.006692
 N   -0.080053    1.111209   -0.616092
 C   -1.112756    0.239723   -0.327781
 N   -2.320365    0.692671   -0.208304
 C   -3.194711   -0.333134    0.076420
 C   -5.607056   -1.028539    0.126100
 C   -7.272349    0.636726    0.540834
 C   -6.235306    1.562307    0.613907
 N   -4.951003    1.254811    0.454142
 S   -0.926760   -1.479335   -0.066410
 O    1.922574    1.916174   -1.196670
 H   -7.713326   -1.449953    0.213898
 H   -3.103120   -2.503451    0.456663
 H    6.078220   -2.532941    1.301566
 H    4.190503   -2.607137   -0.335328
 H    4.166849    1.674121   -0.524115
 H    7.021061   -0.322186    2.007777
 H    1.187050   -1.074904   -1.714815
 H    1.701432   -0.957799   -0.016942
 H   -0.375535    2.079017   -0.660368
 H   -5.331728   -2.057717   -0.086929
 H   -8.302503    0.951339    0.676754
 H   -6.443930    2.613432    0.807143
