35 
5mys_ligand_dft.xyz
 C    1.364864   -0.521494   -1.325594
 C   -4.528566    0.177801    0.113986
 C   -6.876038   -0.090666    0.526659
 C   -2.653354   -1.073825    1.240992
 C    6.508077   -0.068552    0.194537
 C    5.515594   -0.992117   -0.096168
 C    4.173137   -0.613549   -0.016525
 C    3.827954    0.684885    0.351714
 C    4.853001    1.577505    0.637001
 C    6.191412    1.236202    0.570829
 F    4.513411    2.827486    0.989042
 O    3.273371   -1.599008   -0.296656
 C    1.911794   -1.334686   -0.152362
 N    0.020970   -0.184125   -1.309378
 C   -1.037443   -0.425793   -0.448327
 N   -2.203214    0.067973   -0.721937
 C   -3.129066   -0.294413    0.230294
 C   -5.582013   -0.583352    0.629522
 C   -7.077020    1.135163   -0.096568
 C   -5.963607    1.808563   -0.591878
 N   -4.715627    1.354247   -0.494009
 S   -0.968820   -1.388369    1.014581
 O    2.061395   -0.170862   -2.250300
 H   -7.713789   -0.661064    0.916270
 H   -3.168934   -1.442961    2.115632
 H    7.549541   -0.367648    0.130158
 H    5.753221   -2.008813   -0.387707
 H    2.806668    1.041299    0.399061
 H    6.952091    1.972562    0.801221
 H    1.418970   -2.312574   -0.131779
 H    1.696231   -0.831035    0.800874
 H   -0.259336    0.364822   -2.115450
 H   -5.390769   -1.551816    1.080245
 H   -8.069646    1.558935   -0.205630
 H   -6.079211    2.767091   -1.093342
