52 
5mz3_ligand_dft.xyz
 C   -1.426309    3.271638   -0.324008
 C   -1.193743    1.950020    0.093620
 C    0.107216    1.437608    0.145361
 C    5.384194    1.497887    0.337600
 C    6.760917    1.296843    0.300304
 C    7.273155    0.025012    0.079639
 C    6.401349   -1.050491   -0.086604
 C    5.027532   -0.856258   -0.038911
 C   -2.800534    3.896893   -0.356064
 C   -2.295521    1.043139    0.517070
 C   -3.363569    0.804672   -0.300953
 C   -4.326877   -0.711710    1.319528
 C   -3.223590   -0.483493    2.171900
 C   -2.234148    0.371942    1.777061
 C   -5.512323   -0.434177   -0.549855
 C   -6.110881   -1.306616    0.331615
 C   -8.146489   -1.930196   -0.882658
 C   -9.393125   -2.787470   -0.791317
 C    6.961272   -2.419857   -0.370015
 C    1.195156    2.223522   -0.229335
 C    0.969896    3.532780   -0.660707
 C   -0.319648    4.036649   -0.700210
 N    2.530231    1.772022   -0.196352
 C    3.011857    0.554353    0.207982
 C    4.510666    0.424387    0.156344
 O    2.313229   -0.376459    0.571878
 N   -4.355400   -0.048520    0.095102
 N   -5.397078   -1.481582    1.472939
 N   -7.309380   -2.000696    0.197817
 O   -7.910582   -1.229700   -1.852251
 F    8.115088   -2.626414    0.287676
 F    6.111471   -3.393832   -0.015670
 F    7.223890   -2.576834   -1.679819
 H    0.273268    0.417021    0.462283
 H    5.001436    2.492513    0.550737
 H    7.434893    2.132894    0.455916
 H    8.345390   -0.137041    0.052047
 H    4.339732   -1.688098   -0.141864
 H   -3.329408    3.678434   -1.291457
 H   -3.428983    3.537173    0.463350
 H   -2.726199    4.985522   -0.276037
 H   -3.478857    1.245660   -1.283340
 H   -3.197150   -0.998790    3.124572
 H   -1.383604    0.559916    2.424284
 H   -5.799213   -0.078877   -1.523233
 H  -10.268906   -2.140951   -0.891687
 H   -9.399987   -3.483395   -1.634453
 H   -9.473651   -3.355106    0.139663
 H    1.805357    4.164372   -0.954687
 H   -0.472395    5.063872   -1.020987
 H    3.202921    2.408865   -0.595961
 H   -7.537182   -2.592027    0.983283
