14 
5mz8_ligand_ani.xyz
 C    1.957106    0.092118   -0.081599
 O    2.661553    0.151730   -1.051653
 O    2.382304   -0.565109    1.026488
 C    0.551608    0.656527   -0.007925
 C   -0.486491   -0.450018   -0.199920
 C   -1.900607    0.068067    0.012664
 O   -2.886152   -0.825772   -0.227115
 O   -2.163563    1.183005    0.374554
 H    1.729199   -0.488381    1.735528
 H    0.444343    1.406714   -0.794051
 H    0.372419    1.156799    0.950632
 H   -0.313936   -1.275292    0.506988
 H   -0.407305   -0.881314   -1.206656
 H   -2.507539   -1.669516   -0.509954
