45 
5n0f_ligand_ani.xyz
 O   -2.967096   -1.348990    1.853577
 C   -2.485538   -1.539090    0.540913
 C   -3.268721   -0.687709   -0.440508
 O   -4.634341   -1.057322   -0.300635
 C   -3.068783    0.778388   -0.082629
 O   -3.760226    1.610113   -1.001569
 C   -1.592826    1.149128   -0.128451
 C   -1.393770    2.571929    0.378246
 O   -0.814860    0.261893    0.706926
 C   -1.015424   -1.134678    0.541583
 S   -0.223101   -1.830046   -0.959366
 C    1.513693   -1.851222   -0.417404
 C    2.450325   -0.815329   -1.067177
 C    1.886077    0.602526   -1.218022
 N    1.718334    1.274373    0.094782
 C    3.018869    1.431267    0.795481
 C    3.697291    0.079869    1.017004
 O    2.955301   -0.592491    2.034493
 C    3.781903   -0.729961   -0.289062
 O    4.771469   -0.053332   -1.054106
 O   -0.191002    3.134919   -0.155842
 H   -3.921518   -1.500674    1.805316
 H   -2.563666   -2.593817    0.240099
 H   -2.912838   -0.872302   -1.463415
 H   -5.101414   -0.766031   -1.093089
 H   -3.437108    0.930038    0.942848
 H   -4.694979    1.565845   -0.765192
 H   -1.232875    1.083640   -1.163981
 H   -1.346538    2.540899    1.474611
 H   -2.252144    3.180528    0.069352
 H   -0.536107   -1.606369    1.406011
 H    1.901886   -2.853407   -0.633788
 H    1.529108   -1.735781    0.669164
 H    2.686715   -1.174763   -2.079709
 H    0.928221    0.592519   -1.741593
 H    2.588248    1.186326   -1.821086
 H    1.241497    2.184080   -0.038214
 H    1.076300    0.718039    0.683905
 H    3.678050    2.056481    0.186516
 H    2.868291    1.916640    1.760351
 H    4.726698    0.261374    1.352857
 H    3.496469   -1.317581    2.370902
 H    4.120910   -1.753228   -0.042477
 H    4.896217   -0.538176   -1.880512
 H   -0.210682    4.086839    0.004897
