23 
5n1p_ligand_xtb.xyz
 C    1.850428   -0.332684    0.219845
 C    0.601854    0.463650    0.131421
 C   -0.663658   -0.177916    0.033076
 C   -1.830349    0.632615   -0.030986
 C   -1.706147    2.035965    0.019528
 C   -0.477621    2.625600    0.126001
 C    0.678209    1.837419    0.178404
 C   -3.092785    0.011657   -0.139489
 C   -3.202112   -1.349060   -0.183746
 C   -2.051065   -2.148762   -0.123545
 C   -0.811922   -1.579900   -0.021744
 O    2.022669   -1.347274    0.879422
 N    2.891384    0.191795   -0.468178
 O    4.083459   -0.539330   -0.475501
 H   -2.602762    2.637677   -0.021035
 H   -0.386505    3.700428    0.173783
 H    1.638526    2.320038    0.287279
 H   -3.972653    0.637428   -0.186897
 H   -4.172172   -1.817241   -0.264379
 H   -2.150670   -3.223520   -0.158455
 H    0.066255   -2.202474    0.036468
 H    2.841822    0.861797   -1.216601
 H    3.880454   -1.275380    0.143127
