23 
5n1p_ligand_ani.xyz
 C    1.871061   -0.358914    0.207362
 C    0.612467    0.442122    0.141484
 C   -0.674835   -0.183189    0.048785
 C   -1.824474    0.650188   -0.036586
 C   -1.680109    2.062652    0.006479
 C   -0.442386    2.633083    0.126157
 C    0.705309    1.815993    0.188699
 C   -3.109215    0.056517   -0.159449
 C   -3.253816   -1.302834   -0.188669
 C   -2.116799   -2.135071   -0.092133
 C   -0.862238   -1.594430    0.025448
 O    2.003339   -1.473040    0.702387
 N    2.979811    0.274447   -0.308337
 O    4.095014   -0.540238   -0.477908
 H   -2.573415    2.680769   -0.053474
 H   -0.330823    3.713981    0.161373
 H    1.683186    2.276877    0.291748
 H   -3.978467    0.707804   -0.228882
 H   -4.240151   -1.750610   -0.282560
 H   -2.241300   -3.214893   -0.108483
 H    0.009502   -2.232318    0.116246
 H    2.848846    0.837623   -1.140498
 H    3.827323   -1.350837    0.001595
