31 
5n1s_ligand_ani.xyz
 S   -6.028788    0.850591   16.721446
 O   -5.146677    0.128679   17.624958
 O   -7.349020    1.308150   17.125336
 N   -6.240463   -0.115380   15.372374
 C   -5.138485    2.249792   16.100140
 C   -5.844216    3.350172   15.619276
 C   -5.143055    4.437667   15.121590
 C   -3.741154    4.437206   15.098371
 C   -3.057567    3.319189   15.591143
 C   -3.746950    2.228285   16.098138
 C   -0.447980    8.985740   12.801261
 C   -1.558396    9.730594   13.248162
 C   -0.394192    7.615433   12.971214
 C   -1.472361    6.969833   13.601836
 C   -1.756248    5.608921   13.945979
 C   -2.576830    7.735634   14.039078
 C   -2.633624    9.121844   13.870694
 N   -3.487298    6.864478   14.597548
 C   -2.982023    5.575348   14.560336
 H   -5.770661   -1.005092   15.503263
 H   -7.229484   -0.227682   15.175828
 H   -6.929752    3.353864   15.650398
 H   -5.691219    5.290866   14.730148
 H   -1.971171    3.320127   15.589783
 H   -3.218396    1.368753   16.498205
 H    0.377042    9.500797   12.316296
 H   -1.569002   10.807374   13.099459
 H    0.465123    7.045765   12.625094
 H   -1.126523    4.756563   13.725297
 H   -3.487846    9.701864   14.211428
 H   -4.294783    7.138628   15.132921
