61 
5n1z_ligand_ani.xyz
 C    1.878636   -1.515746    0.254857
 C    1.858949   -0.218382   -0.277652
 C    3.043864    0.486645   -0.406438
 N    0.704641   -2.284096    0.369080
 C    6.751147   -1.427896    0.085012
 C    6.720096    0.069977   -0.148807
 C    2.051347    2.321693   -1.628715
 C    1.123913    3.136609   -0.764527
 C   -0.171700    3.342387   -1.000793
 C   -1.011288    4.347627   -0.245588
 C   -2.612645    3.398398    1.295606
 C   -4.072999    2.961458    1.300381
 C   -4.053710    1.593186    0.600436
 C   -1.869515    2.094364    1.578934
 C   -0.564905   -1.801573    0.476636
 C   -2.866819   -2.294618    0.037636
 C   -3.561572   -3.426744   -0.384685
 C   -2.568226   -4.428242   -0.506760
 C   -4.290881    1.692912   -0.923515
 N   -6.097113   -3.456077   -0.852070
 C   -4.956862   -3.454965   -0.641053
 N   -1.360406   -3.992930   -0.208309
 N   -1.553712   -2.687515    0.126473
 C   -0.961551   -0.563729    0.909110
 N   -3.264869   -1.038641    0.269981
 C   -2.332416   -0.189198    0.717230
 N   -2.727493    1.083525    0.965028
 O   -4.948853    0.571119   -1.450733
 O   -2.333436    3.895568   -0.008606
 O    3.137087    1.765199   -0.892452
 C    4.261598   -0.095166   -0.008844
 N    5.458127    0.617631   -0.171910
 O    7.713322    0.741945   -0.345093
 C    5.619228   -1.917119    0.989189
 C    4.282273   -1.377392    0.527519
 C    3.090950   -2.086818    0.639069
 H    0.923416    0.206305   -0.618959
 H    0.760727   -3.287630    0.224245
 H    7.736551   -1.675371    0.486316
 H    6.678622   -1.907744   -0.901171
 H    2.537154    2.975728   -2.363209
 H    1.512254    1.548640   -2.193462
 H    1.606009    3.651621    0.066938
 H   -0.688476    2.799418   -1.795533
 H   -1.124193    5.260021   -0.848183
 H   -0.502820    4.628786    0.693808
 H   -2.401389    4.169828    2.050062
 H   -4.711950    3.688040    0.793583
 H   -4.426350    2.847813    2.331551
 H   -4.817475    0.913532    1.000992
 H   -0.878281    2.095132    1.122912
 H   -1.762009    1.931268    2.659842
 H   -2.726202   -5.453316   -0.814562
 H   -4.939208    2.554170   -1.126494
 H   -3.326858    1.887581   -1.421040
 H   -0.248133    0.104636    1.369985
 H   -4.474473   -0.211107   -1.111214
 H    5.393220    1.590826   -0.443506
 H    5.596948   -3.012753    1.016144
 H    5.809482   -1.578083    2.017989
 H    3.092787   -3.097279    1.044696
