62 
5n20_ligand_dft.xyz
 C    2.185796    3.537723   -1.713058
 C    1.802997    2.156994    0.337917
 C    0.438425    2.399235    0.493595
 N   -3.883882   -2.565426   -0.831364
 C    2.446092    1.215130    1.167372
 C    4.595666    0.150478    1.795597
 C    4.379107   -1.345226    1.532435
 C    4.406530   -1.370376    0.003302
 C    3.822735    0.007461   -0.421064
 C    3.762539   -2.519519   -2.097213
 C    4.096724   -3.837954   -0.064689
 C   -2.325564    0.714498    0.927718
 C   -3.731816    0.712771    0.754790
 C   -4.332412   -0.387580    0.160684
 C   -2.759710   -3.223926   -1.027033
 C   -0.248918   -2.793397   -0.567200
 C   -6.651548    0.389197    0.291829
 C   -7.787229    0.645003   -0.635475
 N    0.905999   -2.928653   -0.543527
 C   -1.623122   -2.519995   -0.551023
 N   -3.489116   -1.405798   -0.217787
 N   -5.634915   -0.569263   -0.087441
 C   -6.909688    1.591360   -0.565036
 C   -2.137663   -1.320958   -0.019043
 N   -1.535033   -0.291172    0.545615
 N   -1.685452    1.769256    1.524710
 C   -0.256038    1.760320    1.514080
 C    0.406814    0.960535    2.434294
 C    1.752301    0.677215    2.247783
 N    2.596422    2.780476   -0.638207
 O    1.017756    3.708078   -2.006672
 C    3.323362    4.104536   -2.540229
 N    3.776015    0.836649    0.799173
 N    3.662809   -2.521973   -0.610374
 H   -0.072994    3.032250   -0.219052
 H    5.649399    0.408545    1.631066
 H    4.339618    0.465526    2.807004
 H    3.393025   -1.652864    1.900236
 H    5.142445   -1.980253    1.987775
 H    5.437253   -1.476875   -0.351799
 H    2.813959   -0.094602   -0.835460
 H    4.455816    0.464341   -1.188940
 H    3.126609   -3.315855   -2.484344
 H    4.802468   -2.685396   -2.384937
 H    3.411123   -1.563298   -2.483631
 H    5.160387   -3.978033   -0.267433
 H    3.510781   -4.619422   -0.549146
 H    3.909524   -3.861492    1.007797
 H   -4.341707    1.543626    1.084297
 H   -2.786359   -4.192607   -1.506649
 H   -6.789770    0.433836    1.374336
 H   -8.707113    0.241176   -1.027569
 H   -5.893426   -1.451075   -0.512561
 H   -6.551861    2.564578   -0.859514
 H   -2.173381    2.651011    1.578024
 H   -0.151062    0.485793    3.233353
 H    2.238280   -0.011482    2.930610
 H    3.588869    2.712280   -0.452565
 H    4.216381    4.326021   -1.948313
 H    2.975962    5.017044   -3.025664
 H    3.594886    3.388185   -3.323283
 H    2.636609   -2.465397   -0.407864
