53 
5n21_ligand_ani.xyz
 C   -4.926882    1.491370   -1.130751
 C   -5.204853    0.365378   -0.353387
 C   -4.226168   -0.165748    0.487431
 N   -6.469556   -0.241926   -0.388753
 C    0.155171    0.224214   -0.245049
 C    1.530505   -0.139436   -0.054243
 C    2.152224    2.026546    0.207674
 C    1.926864    4.235942    0.301219
 C    2.882843    3.199628    0.390096
 C    4.286375    3.258604    0.605373
 C    0.953711   -2.543206   -0.303094
 C    1.834531   -3.791521   -0.217654
 C    2.980088   -3.355093    0.696865
 C    3.228140   -1.890436    0.311103
 C   -4.609822   -1.323254    1.378802
 C   -5.602317   -2.252216    0.680124
 C   -6.772934   -1.504372    0.074077
 O   -7.889634   -1.970366   -0.042200
 C   -2.958818    0.407325    0.503375
 C   -2.660035    1.516888   -0.285415
 C   -3.666434    2.064750   -1.088298
 N   -1.399618    2.143532   -0.267920
 C   -0.178236    1.550015   -0.156793
 N    0.852968    2.440306    0.034083
 N    0.704997    3.788936    0.088946
 N    5.431853    3.310635    0.779105
 N    2.509985    0.738525    0.180877
 N    1.898313   -1.448527   -0.099021
 C    4.259842   -1.709146   -0.809859
 C    5.668774   -2.029622   -0.368910
 O    6.541772   -1.931553   -1.389699
 O    6.015214   -2.332099    0.749627
 H   -5.700168    1.918067   -1.766496
 H   -7.224480    0.226395   -0.871683
 H   -0.597610   -0.521057   -0.467460
 H    2.121788    5.296880    0.392157
 H    0.183483   -2.537014    0.480975
 H    0.450699   -2.447442   -1.271971
 H    2.219037   -4.048306   -1.210814
 H    1.292205   -4.659111    0.165934
 H    3.878962   -3.968075    0.598065
 H    2.664757   -3.393749    1.745527
 H    3.565599   -1.300047    1.170093
 H   -5.069688   -0.932025    2.297914
 H   -3.712914   -1.875542    1.684037
 H   -6.009313   -3.008806    1.354697
 H   -5.103210   -2.784918   -0.140577
 H   -2.190263   -0.000727    1.155548
 H   -3.445548    2.942237   -1.691113
 H   -1.356992    3.154574   -0.349777
 H    4.252025   -0.663549   -1.141733
 H    4.009455   -2.323538   -1.683223
 H    7.415370   -2.142126   -1.019256
