53 
5n21_ligand_xtb.xyz
 C   -4.953782    1.597818   -0.984330
 C   -5.231572    0.417582   -0.304385
 C   -4.226059   -0.209586    0.436282
 N   -6.507381   -0.134460   -0.322942
 C    0.157175    0.151437   -0.147126
 C    1.516198   -0.229651    0.040916
 C    2.152620    1.938133    0.237916
 C    1.959024    4.155679    0.265348
 C    2.903638    3.117212    0.369667
 C    4.282549    3.232841    0.544229
 C    1.003827   -2.639623   -0.218310
 C    1.946907   -3.838224   -0.306611
 C    3.098058   -3.434797    0.611919
 C    3.239716   -1.932155    0.364074
 C   -4.601637   -1.433151    1.219904
 C   -5.623714   -2.252985    0.438396
 C   -6.818097   -1.413401    0.032179
 O   -7.954847   -1.824088   -0.020495
 C   -2.954178    0.329826    0.455393
 C   -2.659453    1.488934   -0.260736
 C   -3.680399    2.129045   -0.961816
 N   -1.393393    2.065003   -0.259078
 C   -0.175852    1.484182   -0.104008
 N    0.848791    2.365040    0.072559
 N    0.733564    3.705840    0.088613
 N    5.417205    3.347854    0.679967
 N    2.486100    0.659854    0.239715
 N    1.887327   -1.520997    0.025063
 C    4.215974   -1.590705   -0.766369
 C    5.646314   -1.868706   -0.384820
 O    6.483135   -1.540325   -1.376212
 O    6.026104   -2.329100    0.657031
 H   -5.738478    2.096865   -1.532989
 H   -7.262914    0.429069   -0.691047
 H   -0.597208   -0.587554   -0.339532
 H    2.145147    5.210665    0.313779
 H    0.297913   -2.759659    0.614534
 H    0.433097   -2.495755   -1.140224
 H    2.302113   -3.961608   -1.329741
 H    1.465304   -4.762596    0.004213
 H    4.020509   -3.968442    0.402310
 H    2.826911   -3.613382    1.652280
 H    3.571343   -1.394155    1.257292
 H   -5.040003   -1.122524    2.174313
 H   -3.719828   -2.036098    1.441135
 H   -5.979082   -3.105901    1.016019
 H   -5.170697   -2.632509   -0.482923
 H   -2.196556   -0.134066    1.066638
 H   -3.468982    3.045872   -1.490901
 H   -1.337424    3.070179   -0.383467
 H    4.137420   -0.523151   -0.982871
 H    3.983290   -2.139933   -1.679796
 H    7.403929   -1.682363   -1.105159
