28 
5n24_ligand_xtb.xyz
 C   -0.424107   -0.026493    0.070706
 C    0.278867   -1.144699   -0.378903
 C    1.661525   -1.154721   -0.360997
 C   -2.580546    1.126163   -0.385706
 C   -3.959121    1.144055   -0.427271
 C   -4.679044    0.015659   -0.032423
 C   -4.002416   -1.125682    0.399976
 C   -2.623389   -1.134749    0.429302
 C    2.337729   -0.049922    0.114864
 C    1.665295    1.063964    0.574683
 C    0.282756    1.076798    0.550060
 S    4.117449   -0.042563    0.090484
 O    4.604310   -1.390625    0.088421
 O    4.608716    0.888189    1.063521
 N    4.391120    0.612030   -1.439386
 C   -1.894087   -0.011498    0.039169
 N   -7.238033    0.039133   -0.104138
 C   -6.092222    0.028563   -0.071438
 H   -0.262064   -1.996634   -0.762716
 H    2.228948   -2.006867   -0.699020
 H   -2.024490    1.994068   -0.707102
 H   -4.487585    2.023462   -0.764488
 H   -4.564666   -1.994212    0.709514
 H   -2.101478   -2.012751    0.779017
 H    2.235513    1.895704    0.956016
 H   -0.255830    1.934643    0.923888
 H    4.876090   -0.034228   -2.040356
 H    4.873126    1.494519   -1.385503
