26 
5n25_ligand_xtb.xyz
 C   -0.397184    1.095376    0.512441
 C    1.662068   -0.040582    0.121925
 C   -0.391956   -1.154742   -0.346549
 O    3.930993    0.967035    1.003824
 C   -2.566640   -0.013914    0.021957
 C   -3.269354    1.106170   -0.428193
 C   -4.700775   -1.056352    0.343768
 C    0.990305   -1.161924   -0.320619
 C   -1.099209   -0.024594    0.065507
 C   -5.285541    0.116537   -0.111038
 N    3.728076    0.485326   -1.471681
 C   -3.320308   -1.119838    0.412571
 S    3.441178   -0.037752    0.106051
 C    0.985387    1.086646    0.541587
 O    3.926645   -1.382294    0.215567
 N   -4.584098    1.170738   -0.490942
 H   -0.940408    1.963314    0.854480
 H   -0.929651   -2.019765   -0.704984
 H   -2.741522    1.986295   -0.772025
 H   -5.310060   -1.895028    0.642929
 H    1.560838   -2.024052   -0.626560
 H   -6.360208    0.221584   -0.175669
 H    4.189877    1.379935   -1.489572
 H    4.237837   -0.200879   -2.003877
 H   -2.827975   -2.006600    0.785393
 H    1.552730    1.932158    0.896165
