26 
5n25_ligand_ani.xyz
 C   -0.385672    1.103527    0.421797
 C    1.677682   -0.037599   -0.002378
 C   -0.402682   -1.147623   -0.440256
 O    3.891096   -0.179294    1.443123
 C   -2.586910   -0.010716    0.000523
 C   -3.307718    1.100353   -0.447044
 C   -4.710257   -1.039854    0.447780
 C    0.983553   -1.159348   -0.447810
 C   -1.105053   -0.017738   -0.006859
 C   -5.318112    0.119206   -0.024185
 N    3.910630    1.377124   -0.513730
 C   -3.324767   -1.106333    0.449204
 S    3.447940   -0.126449    0.058582
 C    1.001666    1.099544    0.433101
 O    3.858528   -1.139830   -0.902048
 N   -4.636764    1.175262   -0.472322
 H   -0.924995    1.979059    0.772067
 H   -0.951606   -2.015379   -0.796187
 H   -2.773615    1.970476   -0.829042
 H   -5.310067   -1.874401    0.798710
 H    1.540055   -2.025811   -0.789437
 H   -6.402734    0.205805   -0.046901
 H    4.616383    1.759459    0.108631
 H    4.255566    1.305563   -1.465810
 H   -2.811750   -1.991960    0.818025
 H    1.551292    1.976140    0.763158
