34 
5n3w_ligand_ani.xyz
 C    5.561460   -1.652221   -0.273271
 O    4.169787   -1.880106   -0.261798
 C    3.359846   -0.798125   -0.131512
 C    1.986335   -1.058802   -0.147772
 C    3.830548    0.503672    0.010009
 C    2.902419    1.534846    0.134429
 O    3.396533    2.796850    0.269505
 C    1.532429    1.283869    0.118356
 C    1.066115   -0.024697   -0.025377
 C   -0.406950   -0.388433   -0.059401
 C   -1.385418    0.786932    0.003854
 C   -2.817808    0.353941   -0.178923
 C   -3.478104    0.500362   -1.396502
 C   -4.786020    0.055861   -1.579894
 C   -5.452926   -0.551609   -0.523012
 C   -4.816711   -0.711106    0.703939
 C   -3.508155   -0.261997    0.871831
 O   -2.847051   -0.390333    2.062409
 H    5.855427   -1.001114   -1.106604
 H    5.903974   -1.207574    0.669984
 H    6.025664   -2.631342   -0.399933
 H    1.664288   -2.090115   -0.261438
 H    4.887739    0.745909    0.026003
 H    2.654981    3.411902    0.339489
 H    0.843322    2.120485    0.219441
 H   -0.627358   -1.076878    0.764298
 H   -0.606678   -0.961374   -0.974716
 H   -1.134952    1.506385   -0.785681
 H   -1.278485    1.299633    0.966474
 H   -2.954349    0.976493   -2.222924
 H   -5.276917    0.186058   -2.540616
 H   -6.473510   -0.904641   -0.648029
 H   -5.336133   -1.186534    1.536096
 H   -3.423522   -0.833557    2.696693
