45 
5n49_ligand_ani.xyz
 C   -0.384755   -0.770578    2.767131
 C   -1.272543   -0.445154    1.594110
 C   -2.655290   -0.479677    1.750069
 C   -3.457956   -0.185248    0.658339
 N   -4.832811   -0.139653    0.521269
 C   -5.825548   -0.385038    1.539518
 C   -5.166143    0.209679   -0.784761
 O   -6.283624    0.340721   -1.246063
 N   -3.956329    0.378728   -1.454430
 C   -3.880369    0.762943   -2.842936
 C   -2.906851    0.141744   -0.588357
 C   -1.531678    0.184165   -0.764836
 C   -0.731885   -0.105373    0.329444
 N    0.701770   -0.052094    0.159353
 C    1.346784   -1.257016   -0.208475
 O    0.702515   -2.273467   -0.370254
 C    2.813332   -1.177423   -0.359515
 C    3.485682    0.050445   -0.158422
 C    3.517034   -2.318442   -0.697567
 C    4.909245   -2.266499   -0.845376
 C    5.590825   -1.085560   -0.658793
 C    4.901058    0.101434   -0.313299
 C    5.563264    1.336995   -0.115288
 C    4.856150    2.467968    0.223244
 C    3.464995    2.419597    0.380939
 C    2.787755    1.228846    0.193827
 C    1.322520    1.202349    0.370525
 O    0.659951    2.169823    0.685267
 H   -0.986558   -0.965493    3.659468
 H    0.228379   -1.656496    2.568666
 H    0.300711    0.054476    2.989225
 H   -3.089175   -0.732522    2.714694
 H   -5.733911    0.336114    2.358003
 H   -6.802672   -0.272443    1.067471
 H   -5.730917   -1.399105    1.940393
 H   -4.904967    0.865990   -3.203472
 H   -3.358717    1.718477   -2.954959
 H   -3.363670   -0.001560   -3.431190
 H   -1.071698    0.436152   -1.716548
 H    2.973027   -3.245847   -0.844759
 H    5.452287   -3.170632   -1.110385
 H    6.671944   -1.049099   -0.774810
 H    6.643858    1.378022   -0.235138
 H    5.377812    3.410550    0.371382
 H    2.901353    3.307015    0.649888
