23 
5n53_ligand_dft.xyz
 C    0.020807    1.154776    0.001015
 C   -1.321998    0.822095    0.000289
 C   -1.736713   -0.517521    0.000662
 C   -3.503881   -2.091155   -0.001686
 C    3.481424   -0.194952   -0.000795
 C    4.781219    0.590042   -0.001498
 N    2.347686    0.577865    0.003512
 C    1.001593    0.157601    0.002279
 C   -0.749087   -1.501169    0.002074
 C    0.605637   -1.178524    0.002940
 O   -3.067701   -0.750135   -0.000155
Cl   -2.514581    2.091735   -0.001353
 O    3.477103   -1.413080   -0.003871
 H    0.296849    2.205431    0.000504
 H   -3.159910   -2.624733   -0.896858
 H   -3.162629   -2.625689    0.893947
 H   -4.593261   -2.048996   -0.003370
 H    5.363400    0.295603    0.875590
 H    5.355968    0.306575   -0.887119
 H    4.653446    1.676246    0.005782
 H    2.483648    1.577050    0.003979
 H   -1.025910   -2.548983    0.002650
 H    1.353255   -1.958494    0.003844
