44 
5n6s_ligand_ani.xyz
 O    5.062721   -1.623514   -0.169625
 C    3.832435    0.404467   -0.140405
 C    2.639150    1.147362    0.467449
 O    5.008602    1.092805    0.233252
 C    2.361343    2.440751   -0.311804
 N   -6.747315   -1.715151   -0.761639
 C    1.382501    0.302435    0.550278
 C    0.749776   -0.200694   -0.712244
 C   -0.749965   -0.111800   -0.856921
 O    1.133479    3.047729    0.065292
 C   -2.627167    1.483743   -0.930395
 C   -3.323318    1.738347    0.410662
 C   -3.327290    0.556293    1.382788
 C   -4.095543   -0.661430    0.887609
 O   -1.478867   -1.083933   -1.010307
 N   -1.219606    1.164387   -0.805116
 N   -5.510202   -0.293893    0.663131
 N   -6.116253   -1.067430   -0.076734
 C    1.363548   -1.172895    0.256316
 C    2.666559   -1.837079   -0.142504
 O    2.825092   -3.133488    0.417243
 C    3.878167   -1.039498    0.335416
 H    5.024279   -2.555958    0.086801
 H    3.743592    0.393903   -1.244275
 H    2.934207    1.411979    1.491709
 H    5.747682    0.517006   -0.011405
 H    2.253107    2.204835   -1.375198
 H    3.200416    3.142120   -0.211553
 H    0.666313    0.646972    1.294135
 H    1.290497   -0.034430   -1.645218
 H    1.185008    3.258178    1.006481
 H   -2.728610    2.371938   -1.564345
 H   -3.098134    0.649539   -1.459501
 H   -2.841192    2.594879    0.900587
 H   -4.361202    2.030928    0.210164
 H   -2.299721    0.245345    1.616238
 H   -3.774264    0.885568    2.327692
 H   -4.059411   -1.447099    1.654625
 H   -3.634049   -1.065696   -0.022991
 H   -0.561177    1.910733   -0.606432
 H    0.673806   -1.783365    0.832542
 H    2.736870   -1.903353   -1.243043
 H    2.259604   -3.738546   -0.077476
 H    3.886617   -1.047683    1.438651
