120 
5n7b_ligand_dft.xyz
 N    3.030999    1.470052    1.657638
 C    3.263997    2.934256    1.495080
 C    3.928167    3.099875    0.124292
 O    4.915726    2.418713   -0.132133
 C    4.172069    3.449452    2.603602
 N    3.401057    3.969456   -0.768649
 C    2.282865    4.901639   -0.580437
 C    0.885785    4.290866   -0.783581
 O   -0.097146    4.875676   -0.375088
 C    2.562107    5.982180   -1.641202
 C    3.212621    5.191719   -2.780317
 C    4.100177    4.183594   -2.048757
 N    0.824518    3.116784   -1.493401
 C   -0.334301    2.267409   -1.306142
 C   -0.298164    1.747912    0.147720
 O    0.637066    2.048737    0.878836
 C   -0.251379    1.138583   -2.343763
 C   -1.374828    0.137499   -2.356393
 O   -2.568754    0.643400   -2.040855
 O   -1.212163   -1.029394   -2.656281
 O    1.034186   -0.187896    2.828119
 C    0.136424   -0.440688    2.026966
 C   -1.154696    0.403265    1.944334
 N   -1.267752    0.920058    0.586599
 C   -2.381411   -0.419744    2.373915
 S   -3.957721    0.492311    2.097151
 C   -2.269089   -0.827972    3.841450
 N    0.218081   -1.467956    1.153744
 C    1.478700   -2.146670    0.960139
 C    2.453741   -1.245290    0.175830
 O    2.033454   -0.318499   -0.532028
 C    1.292858   -3.479348    0.220476
 C    0.672266   -3.359731   -1.184786
 C    1.390071   -4.188520   -2.252358
 N    2.697870   -3.678283   -2.613739
 C    3.905971   -4.128295   -2.132918
 N    4.985147   -3.446328   -2.705799
 N    4.149990   -5.032605   -1.252709
 N    3.768208   -1.512703    0.254111
 C    4.424716   -2.399543    1.206144
 C    4.516348   -1.744560    2.588375
 O    4.577183   -0.528848    2.742765
 C    5.836311   -2.569491    0.610575
 C    6.093794   -1.226555   -0.078801
 C    4.727525   -0.816341   -0.624571
 N    4.583993   -2.604424    3.624144
 O   -4.723740   -1.783093    0.991251
 C   -4.513069   -0.433075    0.638157
 C   -5.771372    0.149089   -0.005534
 N   -6.739650    0.582871    0.982814
 C   -6.378989   -0.913040   -0.974353
 O   -6.818944   -0.335030   -2.174939
 C   -5.357349   -1.970554   -1.384870
 O   -4.400430   -1.362636   -2.266056
 C   -4.721818   -2.635289   -0.154477
 C   -3.330435   -3.236758   -0.360750
 O   -2.308842   -2.265880   -0.496092
 C   -7.836458    1.288601    0.605416
 O   -8.063741    1.531919   -0.578714
 C   -8.737676    1.784660    1.708673
 H    3.885294    0.915864    1.846783
 H    2.579706    1.083516    0.815267
 H    2.357667    1.250266    2.406744
 H    2.278989    3.392185    1.537764
 H    4.306415    4.529812    2.500687
 H    3.731142    3.254684    3.585503
 H    5.153973    2.971962    2.546054
 H    2.278852    5.331595    0.423423
 H    3.266201    6.713946   -1.232219
 H    1.649383    6.508015   -1.926794
 H    2.445665    4.672833   -3.364563
 H    3.786874    5.823604   -3.460380
 H    4.220003    3.233681   -2.575266
 H    5.101871    4.578670   -1.848923
 H    1.700700    2.610343   -1.537097
 H   -1.235444    2.868459   -1.451532
 H    0.669726    0.567682   -2.200705
 H   -0.217415    1.600300   -3.337711
 H   -3.243743   -0.084969   -2.094902
 H   -1.004377    1.235027    2.639945
 H   -2.146831    0.875132    0.090884
 H   -2.458882   -1.315926    1.754364
 H   -2.289758    0.045980    4.500670
 H   -3.099268   -1.483921    4.111256
 H   -1.329719   -1.360558    4.022864
 H   -0.525422   -1.612344    0.474383
 H    1.897262   -2.340694    1.952100
 H    2.279992   -3.941626    0.143711
 H    0.685390   -4.134808    0.853210
 H    0.664619   -2.316489   -1.521356
 H   -0.378139   -3.660754   -1.152584
 H    0.776792   -4.209462   -3.159673
 H    1.503344   -5.230826   -1.936209
 H    2.710071   -2.777874   -3.070138
 H    4.897253   -3.311266   -3.706182
 H    5.851804   -3.921721   -2.485059
 H    3.296830   -5.424658   -0.862706
 H    3.921856   -3.368023    1.267866
 H    5.793913   -3.393799   -0.105317
 H    6.578027   -2.812790    1.375803
 H    6.836280   -1.307550   -0.874927
 H    6.444762   -0.484378    0.643600
 H    4.578640   -1.176068   -1.646043
 H    4.571769    0.262232   -0.593039
 H    4.595147   -3.604239    3.496965
 H    4.742561   -2.236542    4.551035
 H   -3.712811   -0.396298   -0.099941
 H   -5.484862    1.019821   -0.606432
 H   -6.618302    0.305016    1.946302
 H   -7.197129   -1.416920   -0.439220
 H   -7.366744    0.434634   -1.917009
 H   -5.872559   -2.746879   -1.962155
 H   -4.964239   -0.924816   -2.929611
 H   -5.389211   -3.460206    0.120053
 H   -3.090776   -3.818221    0.534212
 H   -3.344852   -3.921925   -1.218156
 H   -2.181275   -2.044422   -1.436059
 H   -9.776723    1.611423    1.422304
 H   -8.540390    1.311985    2.674167
 H   -8.597298    2.864739    1.813201
