120 
5n7b_ligand_xtb.xyz
 N   -3.023931   -2.054499    2.241260
 C   -2.961331   -3.323138    1.492630
 C   -3.657101   -3.035963    0.149094
 O   -4.509457   -2.162810    0.114458
 C   -3.753119   -4.395451    2.233989
 N   -3.348845   -3.790660   -0.907181
 C   -2.265429   -4.748746   -1.024407
 C   -0.887898   -4.062444   -1.010392
 O    0.045740   -4.533358   -0.400830
 C   -2.534002   -5.449446   -2.363778
 C   -3.262957   -4.393964   -3.194096
 C   -4.091182   -3.641598   -2.157667
 N   -0.799726   -2.937196   -1.763520
 C    0.304280   -2.033304   -1.500971
 C    0.138975   -1.562646   -0.049649
 O   -0.935589   -1.688209    0.513476
 C    0.213908   -0.845481   -2.459630
 C    1.356496    0.132108   -2.355028
 O    2.527151   -0.421122   -2.064382
 O    1.231497    1.320144   -2.524297
 O   -1.105541   -0.172434    2.853231
 C   -0.238237    0.187954    2.069393
 C    1.088751   -0.579383    1.930838
 N    1.198333   -0.996462    0.541069
 C    2.285581    0.263133    2.365435
 S    3.848700   -0.669451    2.038646
 C    2.210185    0.618288    3.839856
 N   -0.351760    1.258580    1.281297
 C   -1.610287    1.966263    1.151286
 C   -2.476144    1.292565    0.071504
 O   -1.960654    0.684591   -0.858023
 C   -1.374719    3.435512    0.780428
 C   -0.573883    3.618815   -0.517819
 C   -1.142303    4.721247   -1.425773
 N   -2.237697    4.270459   -2.250949
 C   -3.563763    4.272910   -1.898350
 N   -4.355686    3.500123   -2.733704
 N   -4.132430    4.863874   -0.925129
 N   -3.799584    1.422520    0.179167
 C   -4.564323    2.140905    1.174021
 C   -4.833451    1.281355    2.412542
 O   -4.588137    0.092499    2.479585
 C   -5.876344    2.452369    0.437737
 C   -6.077475    1.203559   -0.414577
 C   -4.661407    0.846765   -0.849826
 N   -5.376652    1.964384    3.433514
 O    4.778327    1.628640    1.172982
 C    4.465485    0.359235    0.665268
 C    5.670309   -0.247818   -0.047184
 N    6.603849   -0.833958    0.888631
 C    6.360099    0.873601   -0.883082
 O    6.771966    0.392378   -2.128422
 C    5.395280    2.037202   -1.167650
 O    4.391569    1.589698   -2.069960
 C    4.820013    2.605318    0.143075
 C    3.443674    3.290418   -0.012223
 O    2.381109    2.399939   -0.247630
 C    7.695591   -1.510924    0.462202
 O    7.975341   -1.589374   -0.720365
 C    8.508607   -2.135296    1.562958
 H   -3.817422   -1.476163    1.858179
 H   -2.163366   -1.474197    2.130910
 H   -3.182624   -2.180152    3.241461
 H   -1.921469   -3.618158    1.356317
 H   -3.764682   -5.325548    1.673237
 H   -3.306542   -4.595287    3.205232
 H   -4.782053   -4.069819    2.371789
 H   -2.265509   -5.467285   -0.199772
 H   -3.180171   -6.311757   -2.199448
 H   -1.613256   -5.792521   -2.829900
 H   -2.547727   -3.732348   -3.681550
 H   -3.888962   -4.842546   -3.961431
 H   -4.230236   -2.583442   -2.388878
 H   -5.081759   -4.089950   -2.033704
 H   -1.664919   -2.467170   -1.989661
 H    1.243394   -2.582040   -1.617343
 H   -0.708660   -0.291124   -2.267711
 H    0.198112   -1.217248   -3.487833
 H    3.238726    0.272794   -2.062703
 H    1.017636   -1.464836    2.579527
 H    2.124235   -1.123766    0.158611
 H    2.356521    1.168029    1.761510
 H    2.211472   -0.282105    4.449891
 H    3.066594    1.226834    4.117730
 H    1.298832    1.175799    4.045907
 H    0.366888    1.478505    0.604617
 H   -2.113094    1.884114    2.120588
 H   -2.350538    3.906392    0.665925
 H   -0.862911    3.929441    1.608809
 H   -0.569029    2.690616   -1.093152
 H    0.459540    3.864336   -0.279917
 H   -0.355207    5.067581   -2.101924
 H   -1.471972    5.578539   -0.833556
 H   -1.972810    3.571515   -2.929207
 H   -4.038623    3.433292   -3.689165
 H   -5.333882    3.737082   -2.658548
 H   -3.514223    5.412755   -0.339188
 H   -4.067145    3.062351    1.483312
 H   -5.709677    3.332169   -0.186891
 H   -6.706169    2.640370    1.115677
 H   -6.732349    1.380424   -1.263490
 H   -6.493797    0.396095    0.188088
 H   -4.402979    1.298804   -1.810978
 H   -4.502351   -0.231040   -0.894859
 H   -5.600303    2.941446    3.363204
 H   -5.633988    1.474136    4.275082
 H    3.634692    0.443293   -0.040703
 H    5.335427   -1.031103   -0.742968
 H    6.397971   -0.752944    1.872028
 H    7.207890    1.261465   -0.298524
 H    7.346863   -0.383499   -1.955102
 H    5.960584    2.835831   -1.665119
 H    4.894074    1.237213   -2.822476
 H    5.517549    3.364310    0.512972
 H    3.222202    3.783656    0.939616
 H    3.516172    4.048132   -0.797474
 H    2.265007    2.265961   -1.204537
 H    9.358340   -2.655452    1.131148
 H    8.865627   -1.367812    2.245958
 H    7.897882   -2.841066    2.121352
