59 
5n7v_ligand_xtb.xyz
 C   36.408511   43.373885   38.395895
 C   37.138030   42.478078   39.219964
 C   36.985685   42.608247   40.603425
 C   37.503103   42.111038   37.093360
 C   35.526230   44.353613   40.201907
 C   39.040708   40.247325   42.660795
 C   38.095868   39.885459   43.804998
 C   37.139526   38.773754   43.385112
 C   36.353159   39.191810   42.146862
 C   37.301465   39.509960   40.994681
 C   38.288673   40.625343   41.380701
 N   37.636950   41.899720   41.564130
 N   36.165206   43.551439   41.059916
 N   37.833778   41.677050   38.336702
 N   36.670048   43.105412   37.081729
 N   35.605185   44.315360   38.870588
 N   34.691152   45.322228   40.657980
 C   34.303891   45.694793   41.939559
 C   33.372773   46.735666   42.086302
 C   32.793716   47.432135   40.887148
 C   32.975264   47.115711   43.354806
 C   34.797407   45.076795   43.083068
 C   34.398157   45.472959   44.343685
 C   33.476396   46.507736   44.510064
 N   33.034172   46.902380   45.758231
 C   32.555027   48.245823   46.002187
 C   33.049231   48.733814   47.363258
 O   32.594758   47.926691   48.430706
 C   32.412386   46.572146   48.067779
 C   33.345106   46.135520   46.941627
 H   37.906264   41.657787   36.207954
 H   39.678431   39.388497   42.441317
 H   38.684370   39.566750   44.667461
 H   36.453493   38.545861   44.202843
 H   37.709239   37.868028   43.163380
 H   35.748261   40.072579   42.373260
 H   35.673575   38.391498   41.848023
 H   36.723569   39.818135   40.120595
 H   37.868500   38.614183   40.730160
 H   39.030264   40.746579   40.577991
 H   37.298247   42.103621   42.492246
 H   38.454398   40.918080   38.560278
 H   34.280942   45.840754   39.894887
 H   32.269321   46.726919   40.241723
 H   32.084298   48.194066   41.200257
 H   33.575392   47.917860   40.302224
 H   32.236684   47.897895   43.444042
 H   35.512121   44.281133   42.964034
 H   34.822413   44.973606   45.200231
 H   32.935551   48.922146   45.232341
 H   31.455360   48.279823   45.983295
 H   34.149681   48.759958   47.358113
 H   32.681333   49.743546   47.563305
 H   31.370952   46.409306   47.752288
 H   32.597910   45.983865   48.970376
 H   33.177859   45.074420   46.735754
 H   34.391013   46.267144   47.263901
 H   39.684896   41.078079   42.955255
 H   37.519100   40.760994   44.111303
