110 
5n8j_ligand_ani.xyz
 N   -1.343764   -0.579107   -2.424864
 C   -2.102625    0.564854   -3.001800
 C   -3.210720    0.918632   -2.015262
 O   -4.267435    0.294938   -1.999709
 N   -2.912536    1.899613   -1.127469
 C   -3.566898    1.993574    0.177382
 C   -4.110948    3.397610    0.466860
 C   -5.578071    3.614076    0.056816
 C   -5.824700    3.331979   -1.424846
 C   -6.007251    5.037627    0.411226
 C   -2.523746    1.500824    1.194108
 O   -2.521628    0.351757    1.624080
 N   -1.543451    2.392246    1.499472
 C   -0.274838    1.997823    2.087374
 C   -0.269842    2.144252    3.607193
 C    0.777484    2.903299    1.446022
 O    0.653874    4.121240    1.494678
 N    1.810015    2.280024    0.825446
 C    2.714589    3.034878   -0.032320
 C    3.841218    2.075646   -0.466485
 O    4.102004    1.845899   -1.649673
 C    2.002131    3.709896   -1.221431
 C    0.976220    2.795339   -1.869427
 O   -0.205221    2.829947   -1.530936
 N    1.460836    1.967467   -2.823729
 N    4.509457    1.501672    0.559289
 C    5.414982    0.352431    0.435930
 C    6.531444    0.503792   -0.613479
 C    7.301048    1.804647   -0.400059
 C    7.458505   -0.712534   -0.535481
 C    4.588129   -0.933465    0.274790
 O    4.629194   -1.814325    1.135253
 N    3.831027   -1.039120   -0.845278
 C    2.746268   -1.998839   -0.913381
 C    1.461559   -1.454652   -0.254164
 O    0.976815   -0.356150   -0.547117
 C    2.435183   -2.423568   -2.360043
 C    1.131767   -3.190409   -2.372200
 O    1.168037   -4.279361   -1.592485
 O    0.123279   -2.817276   -2.933145
 N    0.885105   -2.310711    0.617105
 C   -0.388004   -2.110031    1.261449
 C   -1.466888   -2.956208    0.567726
 O   -1.208839   -3.957779   -0.114539
 C   -0.305320   -2.453085    2.758366
 C    0.542113   -1.455568    3.567984
 C    1.931470   -1.224240    3.003199
 O    2.669062   -2.331686    2.997081
 O    2.339650   -0.149078    2.600236
 N   -2.733139   -2.547724    0.776667
 C   -3.852645   -3.251816    0.199446
 C   -5.078696   -3.033827    1.060473
 O   -5.174269   -2.237345    1.961770
 C   -4.120170   -2.841733   -1.264840
 O   -2.934460   -2.906997   -2.035999
 O   -6.086899   -3.836223    0.681100
 H   -0.755328   -0.294863   -1.621236
 H   -2.019187   -1.315169   -2.124861
 H   -0.735860   -1.034525   -3.112456
 H   -1.423175    1.405685   -3.146170
 H   -2.547622    0.278161   -3.954675
 H   -2.000158    2.342114   -1.210058
 H   -4.381552    1.262184    0.174634
 H   -3.479234    4.137879   -0.048206
 H   -4.030985    3.600723    1.543549
 H   -6.190960    2.913210    0.644496
 H   -6.854939    3.587569   -1.697331
 H   -5.663050    2.277693   -1.674789
 H   -5.154132    3.935378   -2.049576
 H   -7.064620    5.203657    0.176401
 H   -5.860267    5.251036    1.476035
 H   -5.420954    5.767647   -0.161185
 H   -1.564405    3.332979    1.124400
 H   -0.104474    0.947066    1.818972
 H   -1.091365    1.557989    4.031771
 H   -0.408041    3.192161    3.887339
 H    0.677105    1.786158    4.026032
 H    1.702452    1.285751    0.637726
 H    3.155035    3.831343    0.581402
 H    2.747365    4.051079   -1.945431
 H    1.460236    4.571796   -0.833217
 H    0.870995    1.198728   -3.115003
 H    2.465792    1.827665   -2.849182
 H    4.042941    1.568422    1.456853
 H    5.890325    0.245761    1.415642
 H    6.078881    0.535010   -1.607022
 H    7.732617    1.850183    0.608361
 H    6.659165    2.678972   -0.537454
 H    8.125245    1.876650   -1.118213
 H    7.896039   -0.802635    0.467057
 H    6.923621   -1.642908   -0.753036
 H    8.279170   -0.619422   -1.254559
 H    3.814338   -0.242050   -1.473721
 H    3.071412   -2.879718   -0.353596
 H    3.252130   -3.037650   -2.746745
 H    2.308717   -1.539580   -2.992928
 H    0.240858   -4.511692   -1.374281
 H    1.259322   -3.247738    0.682563
 H   -0.656936   -1.053049    1.153509
 H    0.103281   -3.462746    2.872835
 H   -1.319136   -2.459651    3.178044
 H    0.649887   -1.828117    4.593383
 H    0.038582   -0.486938    3.620359
 H    3.487208   -2.143158    2.478926
 H   -2.903704   -1.660556    1.246462
 H   -3.614795   -4.322830    0.202825
 H   -4.891799   -3.498754   -1.685118
 H   -4.458312   -1.801893   -1.326786
 H   -2.387320   -3.639920   -1.705731
 H   -6.837047   -3.633322    1.264995
