106 
5na0_ligand_dft.xyz
 O    9.873821   -3.285087    1.260586
 C    8.873106   -3.321751    0.563250
 C    7.638874   -4.144291    0.963424
 O    7.855073   -4.945997    2.077214
 C    7.859818   -4.238954    3.299624
 N    8.769181   -2.634191   -0.616223
 C    7.585979   -2.657646   -1.473070
 C    7.701305   -1.514175   -2.488382
 C    9.870141   -1.788873   -1.047083
 C    9.395617   -0.337849   -1.186166
 N    8.092636   -0.276194   -1.852787
 C    7.127416    0.606777   -1.361059
 C    5.757305    0.332890   -1.368927
 C    4.834474    1.259768   -0.887095
 C    7.544715    1.851785   -0.851484
 C    6.625197    2.760982   -0.355412
 O    6.953402    3.982006    0.150831
 C    8.313912    4.349673    0.197814
 C    5.243590    2.477685   -0.362037
 N    4.409287    3.482090    0.149737
 C    3.080608    3.491075    0.422018
 N    2.639386    4.675440    0.925392
 N    2.335026    2.409113    0.196231
 C    1.043219    2.524044    0.498643
 N    0.230794    1.424463    0.289318
 C    0.592969    0.184749   -0.193315
 C   -0.534168   -0.586103   -0.241759
 C   -1.636247    0.190578    0.225458
 C   -1.135225    1.443832    0.559658
 C   -1.727359    2.637574    1.079886
 C   -0.953935    3.726583    1.303043
 C    0.452664    3.685851    1.014675
 C    1.356897    4.745990    1.204253
 C   -3.057629   -0.177240    0.351103
 O   -3.868527    0.515523    0.958263
 N   -3.406353   -1.360965   -0.248721
 C   -4.718603   -1.864773   -0.324251
 C   -5.369437   -2.285665   -1.504782
 C   -4.864015   -2.205092   -2.912103
 C   -4.772888   -0.756213   -3.407239
 N   -6.578076   -2.751088   -1.227213
 N   -6.707294   -2.636962    0.110595
 C   -5.610803   -2.097065    0.707473
 C   -5.462410   -1.876253    2.179688
 C   -4.356299   -2.745884    2.789669
 C   -8.017556   -2.856384    0.682622
 C   -8.778318   -1.537456    0.846671
 O   -8.769135   -0.801322   -0.345284
 C   -9.808340   -1.065574   -1.259009
 C  -11.063688   -0.255840   -0.954751
 O  -10.894409    1.135771   -1.069639
 C  -10.314525    1.791604    0.044193
 C   -8.809917    2.055805   -0.111537
 O   -8.165687    1.688602    1.085799
 C   -6.776857    1.530240    0.918346
 H    7.363227   -4.813167    0.139895
 H    6.788357   -3.456658    1.122868
 H    8.693633   -3.532398    3.351804
 H    6.909713   -3.699970    3.444629
 H    7.965287   -4.985510    4.089231
 H    6.684492   -2.506522   -0.869039
 H    7.487000   -3.618725   -1.998009
 H    6.759417   -1.382525   -3.022068
 H    8.445070   -1.767490   -3.252311
 H   10.288159   -2.164012   -1.989135
 H   10.650052   -1.859764   -0.289176
 H   10.155483    0.246066   -1.725887
 H    9.298120    0.086450   -0.180840
 H    5.376003   -0.613487   -1.733813
 H    3.779630    1.027591   -0.902805
 H    8.595228    2.110988   -0.880951
 H    8.893283    3.650299    0.813014
 H    8.748871    4.398102   -0.808101
 H    8.342241    5.340522    0.651868
 H    4.879238    4.341781    0.398056
 H    1.621059   -0.027405   -0.435039
 H   -0.549918   -1.622675   -0.552259
 H   -2.789242    2.613267    1.285620
 H   -1.380268    4.642181    1.701908
 H    0.998951    5.693701    1.605637
 H   -2.727089   -1.788949   -0.859254
 H   -5.541923   -2.780583   -3.549762
 H   -3.877349   -2.682903   -2.990247
 H   -5.756891   -0.279257   -3.365461
 H   -4.091700   -0.168277   -2.783053
 H   -4.411197   -0.715705   -4.440015
 H   -6.410360   -2.073937    2.690892
 H   -5.222337   -0.820357    2.336304
 H   -4.575140   -3.810807    2.659018
 H   -3.393940   -2.537391    2.312708
 H   -4.254961   -2.542957    3.860424
 H   -7.930063   -3.369580    1.645933
 H   -8.534179   -3.523162   -0.011085
 H   -8.294154   -0.900372    1.592709
 H   -9.799851   -1.748680    1.199138
 H  -10.058413   -2.137912   -1.288144
 H   -9.423166   -0.786764   -2.243899
 H  -11.442639   -0.512630    0.048510
 H  -11.838497   -0.531974   -1.679966
 H  -10.452891    1.201611    0.960067
 H  -10.865538    2.730803    0.160551
 H   -8.611173    3.118044   -0.331757
 H   -8.435443    1.462144   -0.953415
 H   -6.547080    0.714398    0.219252
 H   -6.298988    2.451957    0.551599
 H   -6.354051    1.288254    1.895095
