64 
5nad_ligand_xtb.xyz
 C    2.062133    1.717910    0.687754
 C    3.886513    0.160353    0.881588
 C    3.441872    1.464416    0.739778
 C    0.793349   -1.584814    0.902761
 C    1.714800   -2.622376    0.989915
 C    5.752526   -1.452580    0.968778
 C    5.896931   -2.007944   -0.459455
 C    6.913810   -1.238636   -1.275071
 O    1.666498    3.009022    0.592411
 C   -1.668950    2.990124   -0.995529
 F   -2.230810    2.408747   -2.079584
 C   -2.382538    3.852413   -0.159856
 O   -3.671059    4.230653   -0.281554
 C   -4.454777    3.778693   -1.368407
 C   -1.694461    4.398675    0.928992
 C   -0.374945    4.100528    1.182319
 C    0.331791    3.245035    0.346548
 C   -0.331331    2.702587   -0.749159
 F    0.316722    1.900517   -1.608935
 N    1.135864    0.799288    0.769310
 N    1.559868   -0.455696    0.868189
 N    2.973129   -2.169080    1.007532
 C    2.882758   -0.843831    0.929303
 N    5.205535   -0.123442    1.011351
 F    7.111258   -1.784159   -2.483371
 F    8.117123   -1.189825   -0.677432
 F    6.557608    0.039814   -1.490058
 C   -0.653031   -1.629360    0.843247
 C   -1.294279   -2.837399    0.560040
 C   -2.669972   -2.892865    0.495624
 C   -3.447135   -1.757760    0.713694
 C   -2.820158   -0.544527    1.017480
 C   -3.622228    0.695632    1.258342
 C   -1.436453   -0.498330    1.071336
 C   -4.935940   -1.874099    0.668488
 O   -5.682562   -1.419285    1.514028
 N   -5.387079   -2.563085   -0.410311
 C   -6.768152   -2.834223   -0.630818
 C   -7.177535   -4.122042   -1.277831
 C   -7.317617   -2.824758   -2.024356
 H    4.129144    2.289778    0.671799
 H    1.524158   -3.674883    1.054022
 H    6.727953   -1.439173    1.460616
 H    5.071652   -2.115665    1.505955
 H    4.935793   -1.962637   -0.972693
 H    6.225444   -3.046480   -0.418660
 H   -4.035049    4.094100   -2.326529
 H   -4.568909    2.692377   -1.361901
 H   -5.429174    4.243498   -1.228892
 H   -2.242953    5.064581    1.574553
 H    0.133269    4.530516    2.029773
 H    5.833636    0.641786    0.814948
 H   -0.712709   -3.728380    0.382742
 H   -3.152459   -3.840112    0.297224
 H   -4.137005    0.991766    0.344426
 H   -4.385346    0.506318    2.009489
 H   -2.984202    1.513824    1.584659
 H   -0.953378    0.438263    1.299215
 H   -4.730841   -2.889800   -1.102359
 H   -7.363676   -2.433057    0.178732
 H   -8.068745   -4.615161   -0.923261
 H   -6.399921   -4.802608   -1.591134
 H   -6.633952   -2.634644   -2.838284
 H   -8.305962   -2.424020   -2.184629
