54 
5nar_ligand_ani.xyz
 C    1.873152    4.991717    0.460380
 C   -6.138905    0.800621    1.232726
 C    0.528670    4.261414    0.367638
 C   -0.020659    2.075580   -0.768002
 C   -3.542122    1.250651    0.350911
 C   -2.216091    1.126847   -0.220836
 C   -2.089458   -0.138418   -0.690045
 C   -3.479239   -2.217203   -0.732672
 C   -4.162097   -0.004091    0.202474
 C   -4.246784    2.298029    0.955181
 C   -5.539190    2.061365    1.390705
 N    0.829777    3.095626   -0.464503
 N   -1.280099    2.169183   -0.219488
 C    2.603034    4.590705   -0.823627
 N   -3.244515   -0.867728   -0.419969
 O    3.985526    2.561294    0.501078
 C    3.137549    2.165957   -0.281348
 C    2.187379    3.136659   -1.023991
 N   -2.333568   -2.920632   -1.000673
 O   -4.594178   -2.694051   -0.797450
 C   -5.464455   -0.251366    0.637454
 O    0.312875    1.124201   -1.478699
 N    2.920955    0.852846   -0.594029
 C    3.430093   -0.280586    0.057633
 C    4.615858   -0.292128    0.782633
 C    5.023270   -1.490000    1.368092
 C    4.271135   -2.652469    1.251147
 C    3.082858   -2.607943    0.529079
 O    2.375483   -3.808670    0.452729
 C    1.107562   -3.822657    0.003746
 F    0.290811   -2.998347    0.696741
 F    0.999389   -3.456420   -1.285398
 F    0.639854   -5.058430    0.124871
 C    2.661176   -1.442125   -0.079291
 H    1.749391    6.072843    0.561230
 H    2.432287    4.623745    1.324303
 H   -7.156170    0.648881    1.584342
 H    0.164891    3.965676    1.360305
 H   -0.235032    4.893096   -0.106938
 H   -1.275243   -0.553206   -1.269887
 H   -3.805150    3.285688    1.084275
 H   -6.100999    2.863770    1.862155
 H   -1.528846    2.996215    0.298466
 H    3.687161    4.689345   -0.743382
 H    2.258877    5.189719   -1.674493
 H    2.149222    2.839355   -2.078261
 H   -1.479688   -2.681068   -0.514345
 H   -2.494182   -3.912798   -1.102714
 H   -5.916527   -1.226599    0.503806
 H    2.084403    0.678073   -1.145696
 H    5.194144    0.616604    0.892272
 H    5.949740   -1.509336    1.935223
 H    4.584428   -3.586026    1.708666
 H    1.744895   -1.405808   -0.655815
