53 
5nat_ligand_ani.xyz
 C    5.054879   -2.848959    0.138814
 C   -4.319548   -1.080231    0.382690
 C   -5.266497   -0.613798    1.301631
 C   -6.262150   -1.476515    1.730570
 C   -6.330499   -2.799043    1.259698
 C   -5.408137   -3.289960    0.352525
 C   -3.096575   -3.873198   -1.658708
 C    4.813270    1.326178    1.012420
 C    4.990145   -0.036829    0.786902
 C    1.023519    3.151473   -0.285293
 C   -0.340997    3.447282   -0.950243
 C   -2.259672    3.536219    0.552011
 C   -1.510121    4.873393    0.577415
 C   -0.761418    4.900984   -0.757138
 F    4.787812   -4.077826   -0.284198
 F    5.282116   -2.893848    1.461797
 F    6.194521   -2.437207   -0.439467
 O    3.997997   -2.076793   -0.181718
 C    3.978512   -0.716202    0.118679
 C    2.834718   -0.062894   -0.310149
 C    2.677922    1.302909   -0.075037
 C    3.679126    2.010984    0.596641
 N    1.500744    1.899963   -0.551554
 O    1.589158    3.980213    0.410379
 N   -1.421231    2.694777   -0.303496
 C   -1.652415    1.397600   -0.648395
 O   -0.910553    0.779735   -1.416142
 N   -2.765717    0.821078   -0.079636
 C   -3.169509   -0.504464   -0.282550
 C   -2.632767   -1.474267   -1.080709
 N   -3.370066   -2.635589   -0.964995
 C   -4.404892   -2.416209   -0.077728
 H   -5.236698    0.405962    1.684784
 H   -7.003918   -1.125432    2.443382
 H   -7.125285   -3.448485    1.616956
 H   -5.459394   -4.313062   -0.012722
 H   -3.936849   -4.155170   -2.302039
 H   -2.209688   -3.736585   -2.281280
 H   -2.904893   -4.684880   -0.948842
 H    5.591284    1.875413    1.536013
 H    5.888308   -0.537481    1.126571
 H   -0.281275    3.149244   -2.003580
 H   -2.361519    3.111897    1.559198
 H   -3.264254    3.654788    0.122108
 H   -2.184936    5.723303    0.706472
 H   -0.787391    4.875130    1.397400
 H   -1.427973    5.199778   -1.574491
 H    0.101114    5.569708   -0.747621
 H    2.069627   -0.639280   -0.825509
 H    3.556937    3.068563    0.788493
 H    0.861841    1.282506   -1.048314
 H   -3.335753    1.369753    0.544280
 H   -1.769597   -1.419294   -1.731128
