55 
5naw_ligand_dft.xyz
 C    2.532161    4.549855    0.382193
 C   -4.831716    2.583244    1.838907
 C    1.362248    3.649020    0.622902
 C    1.136838    5.061619    0.128542
 C   -4.052848    0.526811    0.160162
 C    0.377643    1.853145   -0.797849
 C   -1.948167    1.310600   -0.283286
 C   -2.113025    0.139436   -0.951153
 C   -3.912575   -1.589697   -1.128553
 C   -3.165917    1.584391    0.440021
 C   -3.562260    2.623669    1.288754
 N    1.424361    2.627014   -0.385562
 N   -0.830629    2.148975   -0.232413
 C    3.334768    3.979624   -0.786215
 N   -3.391831   -0.363947   -0.682960
 O    4.600263    1.670333    0.243080
 C    3.594128    1.455943   -0.408920
 C    2.741151    2.585743   -1.041540
 N   -2.978857   -2.439645   -1.660013
 O   -5.098099   -1.847415   -1.070010
 C   -5.703987    1.521083    1.550401
 C   -5.334333    0.480390    0.712914
 O    0.520683    0.926700   -1.604903
 N    3.044228    0.231589   -0.651300
 C    3.298819   -0.982849   -0.001028
 C    4.455700   -1.250523    0.732219
 C    4.589114   -2.493925    1.344035
 C    3.600210   -3.465345    1.245899
 C    2.459555   -3.171759    0.510014
 O    1.519333   -4.200291    0.435620
 C    0.219101   -3.935490    0.240370
 F   -0.461080   -5.051916    0.451169
 F   -0.256708   -2.978696    1.042623
 F   -0.044048   -3.535146   -1.029767
 C    2.296182   -1.952870   -0.122998
 H    3.073096    4.949408    1.232259
 H   -5.158441    3.379472    2.500544
 H    1.070813    3.337410    1.622433
 H    0.808635    5.180438   -0.900862
 H    0.733291    5.786871    0.829055
 H   -1.448714   -0.342551   -1.646545
 H   -2.892941    3.449026    1.520276
 H   -0.911104    2.989743    0.318516
 H    4.388874    3.882275   -0.521304
 H    3.252184    4.608492   -1.677363
 H    2.598242    2.370286   -2.104663
 H   -2.026589   -2.430477   -1.326624
 H   -3.349803   -3.350823   -1.884597
 H   -6.695533    1.513839    1.992492
 H   -6.006452   -0.333445    0.477857
 H    2.169411    0.262534   -1.179290
 H    5.221213   -0.492098    0.822092
 H    5.487437   -2.707956    1.914561
 H    3.695225   -4.432055    1.726601
 H    1.402608   -1.723778   -0.690971
