57 
5nb6_ligand_ani.xyz
 C    4.432677   -2.068758    0.264641
 C    3.699215   -0.958345   -0.125294
 C    1.997559   -2.462196   -0.970409
 C    0.849254    2.157305   -1.673302
 C    0.797245    4.198574   -0.348926
 C    1.291302    3.621833   -1.689810
 F    7.398778   -1.031896    1.765165
 C    6.243104   -0.795941    1.158610
 F    6.484546   -0.085740    0.044559
 F    5.493703   -0.018276    1.958875
 O    5.671675   -1.989736    0.904532
 C    2.469853   -1.166976   -0.748511
 C    2.759325   -3.553957   -0.569757
 C    3.986393   -3.367428    0.052387
 N    1.673741   -0.092000   -1.190640
 C    1.885322    1.230098   -0.998589
 O    2.799883    1.692312   -0.313589
 N   -0.388841    2.202020   -0.888908
 C   -0.485220    3.393882   -0.045475
 N    1.847135    4.014983    0.724601
 C   -1.277138    1.172564   -0.952519
 O   -1.077626    0.175810   -1.650118
 N   -2.411923    1.321598   -0.187603
 C   -3.412673    0.348852   -0.073073
 C   -3.436897   -0.914268   -0.563332
 N   -4.621883   -1.547523   -0.191201
 C   -5.366818   -0.644716    0.588154
 C   -4.641113    0.558054    0.667963
 C   -5.175348    1.638846    1.377928
 C   -6.409325    1.485350    1.985945
 C   -7.115452    0.273942    1.897976
 C   -6.609461   -0.809558    1.200927
 C   -4.982782   -2.878976   -0.453126
 O   -5.834785   -3.472103    0.176749
 N   -4.245736   -3.454579   -1.457864
 H    4.043992    0.051244    0.041741
 H    1.037746   -2.618926   -1.456561
 H    0.627411    1.763723   -2.669988
 H    0.575078    5.261528   -0.424372
 H    2.369580    3.729949   -1.813845
 H    0.799613    4.140308   -2.518989
 H    2.389006   -4.559526   -0.746478
 H    4.603518   -4.199052    0.376809
 H    0.767565   -0.334464   -1.583874
 H   -1.368753    3.989362   -0.307959
 H   -0.550790    3.127291    1.018174
 H    2.539771    4.784191    0.671459
 H    2.335364    3.100944    0.544823
 H    1.425202    4.015583    1.670738
 H   -2.548022    2.173435    0.331723
 H   -2.656471   -1.418756   -1.119153
 H   -4.646704    2.588331    1.458093
 H   -6.839746    2.314333    2.542024
 H   -8.080894    0.185407    2.389544
 H   -7.141349   -1.750516    1.131801
 H   -3.913954   -2.871687   -2.212350
 H   -4.595172   -4.360340   -1.734494
