57 
5nb6_ligand_xtb.xyz
 C    4.439986   -2.071905    0.234692
 C    3.743595   -0.948315   -0.175211
 C    1.997839   -2.391467   -1.020648
 C    0.813731    2.147247   -1.635888
 C    0.781385    4.226252   -0.418997
 C    1.211793    3.620125   -1.756712
 F    7.381665   -1.076811    1.797205
 C    6.238768   -0.860305    1.172243
 F    6.510801   -0.092389    0.100840
 F    5.488117   -0.081758    1.977733
 O    5.678573   -2.018884    0.876361
 C    2.512153   -1.118350   -0.802489
 C    2.713304   -3.499543   -0.603703
 C    3.935341   -3.348835    0.025427
 N    1.752629   -0.028601   -1.260082
 C    1.879767    1.255356   -0.980234
 O    2.723733    1.744558   -0.200789
 N   -0.338329    2.165099   -0.746753
 C   -0.482103    3.432169   -0.058155
 N    1.869310    3.996827    0.564700
 C   -1.241227    1.120274   -0.825019
 O   -0.953463    0.135421   -1.493750
 N   -2.375767    1.268304   -0.118689
 C   -3.396925    0.313702   -0.022632
 C   -3.445968   -0.943185   -0.541926
 N   -4.634074   -1.549240   -0.182589
 C   -5.359152   -0.656168    0.590513
 C   -4.613246    0.536789    0.699840
 C   -5.124483    1.619028    1.412598
 C   -6.364471    1.488291    1.997968
 C   -7.094394    0.304535    1.882041
 C   -6.609409   -0.780292    1.180541
 C   -5.052929   -2.853690   -0.499781
 O   -5.946310   -3.399142    0.094178
 N   -4.343735   -3.442786   -1.495977
 H    4.128209    0.045272   -0.024691
 H    1.042369   -2.505639   -1.509034
 H    0.531520    1.714813   -2.601555
 H    0.568477    5.295069   -0.487860
 H    2.275499    3.746389   -1.949762
 H    0.657564    4.081234   -2.572484
 H    2.317406   -4.488343   -0.770119
 H    4.509444   -4.197232    0.357409
 H    0.869776   -0.281855   -1.723531
 H   -1.366658    3.976442   -0.413214
 H   -0.573834    3.284780    1.023992
 H    2.605864    4.697959    0.472211
 H    2.342861    2.968426    0.289361
 H    1.540774    3.994028    1.531244
 H   -2.568919    2.127202    0.371417
 H   -2.691179   -1.450044   -1.106343
 H   -4.568861    2.542673    1.504254
 H   -6.782054    2.312975    2.555006
 H   -8.062295    0.237871    2.353371
 H   -7.169568   -1.695964    1.096059
 H   -3.792622   -2.912050   -2.146097
 H   -4.669658   -4.348503   -1.790699
