47 
5ncy_ligand_ani.xyz
 C    4.346621    2.671322   -0.688996
 C    4.314057    1.217950   -0.352858
 C    5.380639    0.404299   -0.271221
 N    3.103676    0.527052   -0.086324
 C    1.809570    1.115144   -0.024527
 C    0.747056    0.220855    0.445609
 C    0.929303   -1.164515    0.419196
 C    2.227987   -1.677031    0.358197
 C   -0.281625   -2.114325    0.288610
 C    0.092198   -3.579982    0.452406
 C   -1.855085   -1.031871   -1.362307
 C   -2.602758    0.457448   -2.900457
 C   -2.136796    0.999164    2.756496
 C   -1.079859    1.935286    0.361569
 S    4.964019   -1.232180    0.112579
 C    3.288878   -0.815626    0.161685
 O    1.655482    2.288723   -0.316342
 N   -0.895626   -1.945677   -1.032660
 C   -2.977624   -0.755124   -0.561604
 C   -3.856803    0.246155   -1.038214
 N   -3.667082    0.851432   -2.213770
 N   -1.702326   -0.448512   -2.561830
 N   -4.914684    0.648870   -0.297928
 C   -3.315458   -1.424130    0.653437
 N   -3.653492   -1.915219    1.651137
 C   -0.464917    0.858301    1.003098
 C   -1.013049    0.399202    2.208299
 C   -2.749168    2.062151    2.099706
 C   -2.212430    2.526918    0.901276
 H    5.378220    2.982461   -0.872089
 H    3.926756    3.271669    0.121490
 H    3.742120    2.880244   -1.574901
 H    6.414487    0.683235   -0.422046
 H    2.432334   -2.732729    0.464395
 H   -1.024572   -1.865122    1.037190
 H    0.579163   -3.763072    1.416965
 H    0.762785   -3.892320   -0.355710
 H   -0.809341   -4.196062    0.389226
 H   -2.455683    0.941372   -3.865662
 H   -2.545073    0.623470    3.692119
 H   -0.641629    2.323852   -0.551860
 H   -0.216574   -2.003105   -1.783365
 H   -5.576273    1.260997   -0.749381
 H   -5.217027    0.093277    0.486204
 H   -0.537663   -0.432730    2.724973
 H   -3.635054    2.533264    2.521801
 H   -2.682834    3.361228    0.383343
