47 
5ncy_ligand_xtb.xyz
 C    4.782646    2.514189   -0.203998
 C    4.586206    1.042581   -0.178011
 C    5.569618    0.137811   -0.317547
 N    3.335860    0.451587   -0.006193
 C    2.112883    1.153864    0.166046
 C    0.957339    0.310621    0.331626
 C    1.024067   -1.063771    0.301807
 C    2.267140   -1.692019    0.117198
 C   -0.261363   -1.868243    0.371197
 C   -0.071229   -3.366497    0.595290
 C   -2.144573   -0.988935   -1.046674
 C   -3.458951    0.096865   -2.548994
 C   -2.136669    1.731593    1.938985
 C   -0.863484    1.778749   -0.518641
 S    5.003637   -1.504172   -0.244744
 C    3.380961   -0.912909   -0.020147
 O    2.100369    2.370821    0.169264
 N   -0.981222   -1.645286   -0.869494
 C   -3.132257   -0.801615   -0.057781
 C   -4.276592   -0.064233   -0.453175
 N   -4.423811    0.386236   -1.700139
 N   -2.346735   -0.552844   -2.300957
 N   -5.272892    0.197476    0.410935
 C   -3.088796   -1.303330    1.245921
 N   -3.158637   -1.711605    2.321081
 C   -0.315074    1.043772    0.526066
 C   -0.955417    1.034676    1.760439
 C   -2.686238    2.448333    0.889455
 C   -2.044710    2.474889   -0.337181
 H    5.836563    2.736523   -0.350080
 H    4.437822    2.960152    0.726472
 H    4.198211    2.960790   -1.005694
 H    6.612381    0.330187   -0.461424
 H    2.370515   -2.760662    0.085895
 H   -0.870529   -1.472761    1.186857
 H    0.529148   -3.542984    1.483206
 H    0.402695   -3.833893   -0.264379
 H   -1.044941   -3.827136    0.741808
 H   -3.595406    0.443840   -3.565518
 H   -2.625895    1.713961    2.901812
 H   -0.364269    1.797814   -1.475905
 H   -0.424195   -1.684550   -1.712807
 H   -6.054064    0.737186    0.085566
 H   -5.211548   -0.091577    1.370643
 H   -0.521438    0.487974    2.585816
 H   -3.609303    2.991909    1.028684
 H   -2.467863    3.036107   -1.157081
