61 
5ncz_ligand_ani.xyz
 C   -3.120572    0.793147    1.130968
 C   -0.924845   -0.567607   -2.399863
 C    0.091136   -0.219898   -1.513481
 C   -2.546481    1.874501    0.388713
 C    0.142278   -0.791838   -0.249553
 C   -1.875571   -2.058844   -0.746552
 C   -3.231726    2.575333   -0.616674
 C   -1.196336    2.236816    0.602351
 C    2.708579    1.430960    0.094343
 C    5.881516   -0.529210   -0.523787
 C    1.321980   -0.523187    0.703883
 C    1.715400    0.919728    0.821274
 C    4.914785   -1.407193   -0.223397
 C    5.125129   -2.867192    0.016598
 C    1.283826    1.495498    3.236785
 C   -4.967549   -1.801057   -0.690307
 C   -4.897053   -3.458605    1.052542
 C    0.922079    1.795857    1.786296
 N   -3.530772   -0.107910    1.744029
 N   -2.622588    3.488628   -1.376564
 N   -4.545085    2.299159   -0.888806
 C   -1.894731   -1.491316   -2.022403
 C   -0.861829   -1.676228    0.134113
 C   -1.337440    3.710408   -1.101496
 C    3.578042    0.538215   -0.726785
 C    2.502729   -1.436389    0.364017
 C   -2.909185   -3.079996   -0.318340
 N   -0.590979    3.159033   -0.154944
 N    3.636086   -0.824693   -0.156762
 N   -0.510725    1.658926    1.613144
 N   -4.107987   -2.455924    0.317697
 O    2.424060   -2.633986    0.563713
 S    5.312076    1.096348   -0.775181
 H   -0.955643   -0.122940   -3.390547
 H    0.855173    0.498532   -1.812102
 H    2.909038    2.497637    0.055827
 H    6.935894   -0.757893   -0.606490
 H    0.988370   -0.878696    1.685944
 H    4.869943   -3.137620    1.044605
 H    4.476335   -3.459360   -0.633279
 H    6.169945   -3.125843   -0.173798
 H    1.103523    0.437417    3.464410
 H    2.340460    1.706382    3.430109
 H    0.674318    2.106255    3.909893
 H   -5.258308   -2.522843   -1.466168
 H   -5.875421   -1.428867   -0.208271
 H   -4.444182   -0.968360   -1.162311
 H   -4.275959   -3.927002    1.819773
 H   -5.750727   -2.972701    1.529945
 H   -5.263876   -4.237023    0.369571
 H    1.162093    2.836209    1.549173
 H   -4.990790    2.999710   -1.465468
 H   -5.096285    1.974782   -0.107571
 H   -2.673820   -1.777231   -2.729052
 H   -0.836713   -2.103734    1.134733
 H   -0.840315    4.448945   -1.728473
 H    3.197905    0.465779   -1.759916
 H   -2.472766   -3.769949    0.410920
 H   -3.242540   -3.672223   -1.181617
 H   -0.954129    0.864297    2.050500
 H   -3.777829   -1.735287    0.982815
