26 
5nea_ligand_ani.xyz
 C   -0.395865   -0.980193   -0.185823
 C   -0.172524    1.419358    0.038212
 C    1.209041    1.300200    0.014667
 C    0.983863   -1.109050   -0.215614
 C   -0.985629    0.285405   -0.057444
 C   -2.435965    0.428801   -0.029344
 C   -3.303155    1.469782   -0.076795
 N   -4.601261    0.995020   -0.019439
 C   -4.474791   -0.287768    0.059645
 O   -3.190814   -0.714112    0.054598
 C   -5.538204   -1.319955    0.158842
 C    1.774560    0.033721   -0.104599
 S    3.537905   -0.128530   -0.104501
 O    3.872547   -1.361556   -0.799671
 O    4.101851    1.156268   -0.487817
 N    3.912468   -0.361182    1.509118
 H   -1.025946   -1.859273   -0.265479
 H   -0.623645    2.401890    0.138467
 H    1.849941    2.174033    0.078250
 H    1.452314   -2.082212   -0.333674
 H   -3.095646    2.526663   -0.159385
 H   -6.515693   -0.837844    0.126084
 H   -5.461205   -2.034133   -0.666575
 H   -5.445379   -1.876467    1.096768
 H    4.338938   -1.272275    1.641076
 H    4.504734    0.392627    1.841371
