27 
5neb_ligand_ani.xyz
 N    1.336910    1.661602   -0.006832
 N   -1.426957    1.105006   -0.996681
 C   -0.034538   -0.117340    0.610298
 C   -1.156324   -0.271998   -0.443664
 C    2.052615    2.913694    0.143828
 C    1.778562   -1.880716   -0.079406
 C   -2.458268   -0.814969    0.117302
 C    1.333332   -0.480465    0.113826
 N    2.079211    0.530820   -0.171151
 C   -1.102617    2.030953    0.133717
 C    0.134106    1.406819    0.773152
 O    1.042078   -2.836779    0.030707
 O   -2.598329   -1.632287    0.987693
 O    3.075037   -1.971835   -0.397367
 O   -3.503199   -0.256551   -0.550566
 H   -0.807783    1.281048   -1.810228
 H   -2.417850    1.155773   -1.283899
 H   -0.320657   -0.660091    1.515106
 H   -0.845481   -0.948049   -1.238919
 H    1.343987    3.739489    0.045869
 H    2.785489    2.981678   -0.661051
 H    2.571049    2.994529    1.110375
 H   -1.923773    2.057094    0.852104
 H   -0.925740    3.046045   -0.225320
 H    0.260857    1.714049    1.822853
 H    3.258949   -2.921384   -0.497106
 H   -4.309087   -0.658422   -0.185187
