23 
5nf5_ligand_xtb.xyz
 C    1.303347    1.856727    0.392278
 C    0.879707   -0.477092    0.334931
 C   -1.517153    0.180542   -0.223584
 C   -0.068142    0.144221   -0.694305
 C    0.233223    1.655310   -0.691878
 C   -2.245325   -1.056409    0.175726
 C    2.158073   -1.030748   -0.323335
 O   -1.004422    2.279638   -0.304657
 O   -3.510290   -1.052668   -0.144621
 O    3.205339   -0.863918    0.485699
 O    2.178211   -1.536408   -1.397461
 N    1.208902    0.645013    1.255209
 N   -1.940770    1.359448   -0.035476
 O   -1.655431   -1.931052    0.764497
 H    2.295759    1.902534   -0.056179
 H    1.116240    2.768185    0.960521
 H    0.383107   -1.310322    0.855148
 H    0.032844   -0.355167   -1.660071
 H    0.532026    2.081525   -1.649873
 H   -3.976630   -1.854730    0.151080
 H    4.010556   -1.270253    0.120639
 H    2.094451    0.444573    1.740837
 H    0.465083    0.762376    1.953108
