68 
5nf9_ligand_xtb.xyz
 O   -3.458864    2.196415    1.112851
 C   -3.308459    3.027912    0.240544
 C   -4.401480    3.935873   -0.258532
 N   -2.119052    3.187919   -0.389417
 C   -0.920489    2.495880    0.014397
 C   -0.764075    1.155655   -0.719757
 N   -1.840501    0.276632   -0.301802
 C   -2.247371   -0.771247   -1.049754
 C   -3.455058   -1.492464   -0.578833
 C   -3.574087   -2.834318   -0.941682
 C   -4.680257   -3.554950   -0.543242
 C   -5.685864   -2.957472    0.200360
 C   -5.580003   -1.615964    0.554716
 O   -6.509266   -0.923746    1.266827
 C   -7.661115   -1.598853    1.710740
 C   -4.455287   -0.886267    0.167044
 O   -1.630499   -1.122242   -2.049479
 O    0.144009    3.355197   -0.276926
 C    1.380524    2.862087    0.203658
 C    2.416287    3.955900   -0.081669
 O    2.129465    5.135596    0.612620
 C    1.769914    1.529890   -0.452090
 C    0.613910    0.502484   -0.465953
 O    0.894600   -0.428352   -1.479060
 O    2.890707    1.089274    0.295841
 C    3.538917   -0.056280   -0.161401
 C    4.925133   -0.094347    0.502754
 O    5.707724    1.025898    0.166755
 C    5.666335   -1.351822    0.036871
 O    6.885601   -1.499504    0.723855
 C    4.810352   -2.599459    0.319204
 O    4.720705   -2.831475    1.697468
 C    3.408925   -2.389659   -0.271070
 O    2.823691   -1.195180    0.209646
 C    2.418808   -3.498060    0.086731
 O    1.237556   -3.364338   -0.653205
 H   -4.107117    4.976918   -0.149537
 H   -5.306479    3.753298    0.313297
 H   -4.595666    3.735231   -1.309864
 H   -2.000083    3.872882   -1.118137
 H   -0.983112    2.301572    1.101176
 H   -0.848901    1.332385   -1.803050
 H   -2.381359    0.562774    0.504635
 H   -2.787939   -3.287337   -1.524634
 H   -4.771371   -4.596177   -0.813512
 H   -6.543026   -3.543036    0.492943
 H   -7.409354   -2.428661    2.378834
 H   -8.256693   -1.974189    0.872026
 H   -8.241358   -0.859448    2.260408
 H   -4.416367    0.152112    0.457446
 H    1.316157    2.698000    1.290009
 H    3.397639    3.622728    0.255884
 H    2.444096    4.136181   -1.165663
 H    1.214126    5.372926    0.420699
 H    2.067851    1.694189   -1.500043
 H    0.595455    0.005418    0.517405
 H    0.043274   -0.777098   -1.836629
 H    3.648999   -0.021145   -1.265597
 H    4.765268   -0.148633    1.589934
 H    5.183111    1.811862    0.356726
 H    5.848107   -1.264862   -1.045910
 H    7.335101   -0.646150    0.691518
 H    5.280829   -3.463377   -0.178450
 H    5.610696   -2.702390    2.055339
 H    3.504918   -2.326706   -1.368767
 H    2.222827   -3.437150    1.164725
 H    2.844964   -4.476324   -0.146608
 H    1.065485   -2.415083   -0.753815
