85 
5nfb_ligand_ani.xyz
 O    5.874606    1.527613   -0.709054
 C    5.777144    2.461154    0.087644
 C    6.995047    3.216873    0.564435
 N    4.582114    2.872266    0.578757
 C    3.315897    2.469767   -0.003536
 C    2.755893    1.182280    0.595368
 N    3.684285    0.095277    0.316038
 C    3.717700   -1.029505    1.059928
 C    4.819199   -2.012820    0.814200
 C    4.718417   -3.223606    1.503019
 C    5.684971   -4.199697    1.330974
 C    6.764630   -3.988123    0.476043
 C    6.867510   -2.778031   -0.207903
 O    7.878551   -2.469826   -1.063705
 C    8.879964   -3.441606   -1.267574
 C    5.897872   -1.785352   -0.039070
 O    2.855251   -1.269892    1.918507
 O    2.434628    3.531327    0.290903
 C    1.174603    3.403246   -0.361973
 C    0.401894    4.670509   -0.008346
 O    0.160634    4.748440    1.378911
 C    0.442528    2.141101    0.090374
 C    1.344014    0.893073    0.047794
 O    0.713674   -0.132868    0.795964
 O   -0.681731    2.047471   -0.786936
 C   -1.590919    1.022024   -0.525379
 C   -2.968967    1.411809   -1.062734
 O   -3.450107    2.537895   -0.354385
 C   -3.961861    0.260055   -0.887840
 C   -3.383358   -1.076009   -1.378441
 O   -3.320742   -1.089136   -2.782629
 C   -1.975574   -1.258131   -0.827120
 C   -1.233639   -2.486763   -1.321479
 O   -0.064019   -2.682480   -0.556509
 O   -1.171771   -0.143326   -1.182910
 O   -5.134987    0.470055   -1.668274
 C   -6.152937    1.217954   -1.017127
 C   -6.875750    0.395773    0.029505
 C   -7.077922    0.880091    1.324399
 C   -7.747598    0.099479    2.257197
 C   -8.225973   -1.165142    1.921159
 C   -8.022427   -1.648649    0.630200
 C   -7.339191   -0.870512   -0.308189
 O   -8.447772   -2.863836    0.189851
 C   -9.145180   -3.681552    1.102788
 H    7.752295    2.496816    0.884452
 H    7.410606    3.777098   -0.278613
 H    6.780405    3.908117    1.383777
 H    4.546018    3.768993    1.041456
 H    3.428765    2.350706   -1.092844
 H    2.674463    1.324192    1.680960
 H    4.474630    0.336268   -0.277366
 H    3.872093   -3.373201    2.164908
 H    5.605355   -5.143155    1.866259
 H    7.510649   -4.765716    0.354524
 H    9.405717   -3.679199   -0.333414
 H    8.463513   -4.365686   -1.689677
 H    9.584087   -3.005259   -1.977607
 H    6.036238   -0.855010   -0.587276
 H    1.326824    3.348063   -1.451548
 H   -0.573599    4.669715   -0.501617
 H    0.965455    5.544461   -0.369435
 H    1.029445    4.739144    1.802505
 H    0.096926    2.264616    1.127194
 H    1.435483    0.573368   -1.001131
 H    1.384518   -0.552720    1.380164
 H   -1.646381    0.849949    0.565721
 H   -2.872158    1.618237   -2.136558
 H   -2.802945    3.242463   -0.485887
 H   -4.223746    0.177086    0.174551
 H   -4.023368   -1.894562   -1.005384
 H   -4.136610   -0.659836   -3.079879
 H   -2.020242   -1.322536    0.276316
 H   -1.856041   -3.381783   -1.200712
 H   -1.015987   -2.360199   -2.391669
 H    0.326651   -1.804519   -0.394203
 H   -6.840612    1.518740   -1.818774
 H   -5.736164    2.125066   -0.567675
 H   -6.707351    1.865780    1.599418
 H   -7.904171    0.475424    3.266295
 H   -8.748795   -1.756205    2.666193
 H   -7.183730   -1.268446   -1.306930
 H  -10.067828   -3.199159    1.451663
 H   -8.523308   -3.936176    1.971179
 H   -9.397535   -4.593379    0.559316
