23 
5ng9_ligand_dft.xyz
 C    1.344201    1.895762    0.242287
 C    0.889825   -0.459121    0.374074
 C   -1.501721    0.163293   -0.207561
 C   -0.070013    0.109935   -0.679674
 C    0.224788    1.622377   -0.759207
 C   -2.268611   -1.066462    0.128393
 C    2.163911   -1.045995   -0.235752
 O   -0.986057    2.268245   -0.314538
 O   -1.684162   -2.105153    0.347311
 O    3.210603   -0.844742    0.580577
 O    2.187607   -1.617754   -1.284675
 N    1.235279    0.745806    1.215921
 N   -1.950618    1.344588   -0.018126
 O   -3.576033   -0.885163    0.172768
 H    1.233443    2.845096    0.766304
 H    2.332496    1.830953   -0.217532
 H    0.418053   -1.227742    0.993261
 H    0.044933   -0.439284   -1.616446
 H    0.464502    2.000080   -1.753225
 H    3.999820   -1.272465    0.202813
 H    0.490867    0.928074    1.897297
 H    2.107378    0.588000    1.733786
 H   -3.994066   -1.727658    0.422278
