19 
5ngr_ligand_xtb.xyz
 C   -0.833261  -11.735368   15.173833
 C   -2.773772  -12.407028   14.157797
 C   -2.935672  -10.578596   15.402522
 N   -1.299102   -9.612274   16.557469
 N    0.484466  -11.989964   15.440418
 C   -1.558684  -10.681471   15.725605
 N   -1.479434  -12.591447   14.385865
 C   -1.026392   -7.211811   18.258838
 S   -2.720012   -7.526829   17.651712
 C   -2.490941   -8.952122   16.692607
 N   -3.552896  -11.450846   14.608158
 N   -3.470236   -9.490510   16.022177
 H   -3.237063  -13.138412   13.509353
 H   -0.431359   -9.402939   17.019543
 H    0.892325  -12.705330   14.859895
 H    1.085837  -11.221588   15.684619
 H   -1.095776   -6.302286   18.846258
 H   -0.693103   -8.026390   18.895837
 H   -0.350926   -7.050789   17.423492
