19 
5ngr_ligand_ani.xyz
 C   -0.837394  -11.758313   15.174145
 C   -2.776250  -12.406936   14.140480
 C   -2.912170  -10.577165   15.396275
 N   -1.292517   -9.630408   16.570101
 N    0.487577  -11.980767   15.446877
 C   -1.569245  -10.705233   15.726785
 N   -1.468404  -12.621623   14.384847
 C   -1.030060   -7.191345   18.237284
 S   -2.714999   -7.521047   17.684668
 C   -2.479997   -8.959277   16.702951
 N   -3.550662  -11.436403   14.588962
 N   -3.458108   -9.474347   16.018632
 H   -3.248207  -13.135461   13.483008
 H   -0.521657   -9.551655   17.212006
 H    0.910073  -12.669515   14.839225
 H    1.066011  -11.171255   15.620535
 H   -1.079740   -6.247972   18.786156
 H   -0.660283   -7.967342   18.912174
 H   -0.349968   -7.069935   17.390888
