32 
5ngs_ligand_ani.xyz
 N  -26.618066   12.479897   11.952635
 N  -28.276680   10.768764   16.726448
 C  -32.610047   10.539094   12.576986
 C  -33.551375   11.362723   13.422448
 C  -33.897144   12.659651   13.036540
 C  -34.751562   13.431256   13.816927
 C  -35.267862   12.916445   15.002522
 C  -34.072058   10.859321   14.613727
 C  -26.786797   11.584561   15.311689
 C  -27.113148   12.051713   13.149608
 N  -28.413022   11.669426   13.143208
 C  -28.922519   11.219130   14.278443
 S  -30.584721   10.693865   14.400384
 C  -31.150272   10.982027   12.695712
 C  -34.924217   11.628271   15.400725
 C  -28.117145   11.158049   15.417512
 C  -27.066460   10.975797   17.324345
 N  -26.150504   11.459533   16.524345
 N  -26.260382   12.040138   14.173494
 H  -27.305152   12.752410   11.269500
 H  -25.757680   13.004657   11.990333
 H  -29.115142   10.406375   17.152157
 H  -32.903162   10.606716   11.520675
 H  -32.681419    9.482157   12.857114
 H  -33.490327   13.067246   12.111759
 H  -35.014072   14.437792   13.499532
 H  -35.935062   13.518788   15.614518
 H  -33.800624    9.853129   14.929575
 H  -30.503629   10.417456   12.021161
 H  -31.022339   12.042465   12.464488
 H  -35.321819   11.218362   16.326389
 H  -26.910593   10.749788   18.370100
