32 
5ngs_ligand_dft.xyz
 N  -27.403861   10.252856   11.856730
 N  -28.480289   11.884027   16.833651
 C  -31.818471   12.081679   12.442618
 C  -32.995344   11.819221   13.349200
 C  -34.178113   12.549316   13.209710
 C  -35.254871   12.334052   14.063747
 C  -35.163471   11.379292   15.073486
 C  -32.916078   10.864821   14.364587
 C  -27.364896   10.721587   15.314482
 C  -27.685474   10.741206   13.106286
 N  -28.680703   11.664183   13.151739
 C  -29.042834   12.133645   14.335085
 S  -30.315704   13.346723   14.483646
 C  -31.022628   13.342196   12.804128
 C  -33.990861   10.644452   15.221157
 C  -28.393950   11.662524   15.473562
 C  -27.528215   11.087358   17.398000
 N  -26.836696   10.379762   16.541091
 N  -26.987964   10.244889   14.124166
 H  -27.694785   10.824610   11.079778
 H  -26.519502    9.777198   11.766035
 H  -29.130077   12.485122   17.314586
 H  -32.165847   12.211614   11.409315
 H  -31.133872   11.228803   12.441566
 H  -34.258178   13.291769   12.418048
 H  -36.168349   12.908140   13.937841
 H  -36.004100   11.206759   15.739042
 H  -32.000626   10.290475   14.483821
 H  -30.201421   13.487365   12.099112
 H  -31.663004   14.229503   12.784716
 H  -33.912189    9.895387   16.003792
 H  -27.382625   11.066465   18.470276
