32 
5ngs_ligand_xtb.xyz
 N  -26.715451   12.383281   11.953555
 N  -28.158034   10.727485   16.808275
 C  -32.549133   10.658386   12.558769
 C  -33.570185   11.410169   13.366928
 C  -34.094931   12.607098   12.896592
 C  -35.000266   13.325668   13.656593
 C  -35.388645   12.856464   14.899909
 C  -33.965245   10.947207   14.614648
 C  -26.706068   11.479006   15.305093
 C  -27.145487   11.998012   13.179192
 N  -28.454265   11.698152   13.269107
 C  -28.927492   11.258887   14.419137
 S  -30.633287   10.858701   14.538237
 C  -31.146112   11.194604   12.819126
 C  -34.868643   11.665863   15.377379
 C  -28.069506   11.126191   15.500279
 C  -26.906141   10.852269   17.319707
 N  -26.024990   11.290552   16.470878
 N  -26.239106   11.919446   14.143378
 H  -27.407877   12.657333   11.280005
 H  -25.795918   12.784538   11.904744
 H  -28.991466   10.412247   17.276148
 H  -32.758967   10.770653   11.492182
 H  -32.580470    9.595766   12.807760
 H  -33.793969   12.976624   11.925922
 H  -35.403482   14.253769   13.278123
 H  -36.094677   13.417427   15.494340
 H  -33.557950   10.019931   14.991020
 H  -30.402203   10.715433   12.183721
 H  -31.100238   12.274390   12.678671
 H  -35.167723   11.294969   16.346802
 H  -26.677077   10.606477   18.338779
