55 
5ngu_ligand_ani.xyz
 C    6.613001   -0.487447    0.237799
 C    5.530436    0.467428   -0.243665
 C    3.959884   -1.354228   -0.402350
 N   -4.638419   -3.999875   -0.116461
 C    0.844339    1.383746    0.749402
 C    0.917751    2.628167    0.118183
 C    2.117474    2.994487   -0.500905
 C    3.206120    2.136872   -0.523515
 C   -1.485150    3.294818    0.097848
 C   -3.588849    4.104001   -0.004688
 C   -4.108386    2.814821   -0.011350
 C   -3.176268    1.780172    0.036477
 C   -3.518570    0.364581   -0.007055
 C   -4.764624   -0.259607   -0.176370
 C   -2.383701   -3.055264    0.074839
 C   -3.379096   -4.083887    0.610848
 C   -5.330488   -2.818351   -0.285042
 O   -6.521974   -2.792379   -0.546300
 C   -4.482209   -1.632487   -0.150390
 C   -3.072177   -1.732795    0.028111
 N   -2.496045   -0.549191    0.113211
 N   -2.283951    4.369791    0.039307
 N   -1.870530    2.024973    0.125734
 N   -0.137209    3.554140    0.124451
 C    1.938358    0.535031    0.728156
 C    3.137201    0.881945    0.094067
 N    4.215012   -0.022329    0.142877
 C    5.009602   -2.338737    0.084125
 N    6.374879   -1.859856   -0.331081
 C    7.436445   -2.809050    0.024105
 H    6.590083   -0.566608    1.328164
 H    7.603732   -0.142258   -0.068090
 H    5.625274    0.565915   -1.343417
 H    5.698362    1.450741    0.203201
 H    3.980599   -1.340147   -1.508558
 H    2.967619   -1.694807   -0.103105
 H   -5.236124   -4.814675   -0.113627
 H   -0.065483    1.077480    1.250388
 H    2.195491    3.967887   -0.980618
 H    4.112675    2.447437   -1.033797
 H   -4.248756    4.968263   -0.043842
 H   -5.176117    2.635300   -0.053661
 H   -5.745508    0.183243   -0.312382
 H   -2.069950   -3.341826   -0.936205
 H   -1.491018   -2.994775    0.702837
 H   -2.985828   -5.096655    0.485607
 H   -3.530218   -3.919301    1.688241
 H    0.091765    4.525281   -0.025695
 H    1.874948   -0.426143    1.232397
 H    4.840878   -3.334830   -0.333282
 H    4.994891   -2.407564    1.175465
 H    6.360112   -1.760689   -1.364299
 H    7.477265   -2.927424    1.113025
 H    7.234048   -3.784865   -0.424109
 H    8.404336   -2.438811   -0.322285
