55 
5nhf_ligand_ani.xyz
 C   -9.594081   18.223079   37.185507
 C   -9.334171   17.581272   38.392767
 C   -9.202517   16.192941   38.449895
 C  -10.736048   16.106113   41.445780
 C  -12.230185   16.337950   41.211812
 C  -12.856062   14.990244   41.095079
 C  -12.194120   13.887182   40.610719
 C  -13.091593   12.794921   40.604590
 C  -14.287117   13.265750   41.097875
 C  -15.589721   12.637988   41.339535
 C  -15.827462   11.295890   41.065020
 C  -17.110255   10.829357   41.332475
 C  -17.746826   12.876191   42.048752
 C  -17.745560   16.445274   44.941675
 C  -19.688110   17.099203   43.816801
 C  -19.871680   15.724136   43.185497
 C  -10.800637   13.971188   40.160560
 O  -10.226123   13.081435   39.544189
 N  -10.185896   15.168724   40.471353
 C   -8.950375   15.492738   39.773239
 C   -9.353920   15.454328   37.274537
 C   -9.613277   16.093657   36.065852
 C   -9.732322   17.478834   36.018063
 N  -14.126157   14.604944   41.386255
 N  -16.547519   13.433994   41.841845
 N  -18.080286   11.593501   41.818968
 N  -18.748887   13.671361   42.517565
 C  -18.528524   15.005382   43.044546
 O  -19.035157   17.010424   45.067160
 C  -17.797744   15.022837   44.395224
 H   -9.686797   19.305885   37.157603
 H   -9.228790   18.173382   39.301711
 H  -10.576500   15.722023   42.463414
 H  -10.184862   17.048405   41.360134
 H  -12.370043   16.897802   40.278566
 H  -12.657190   16.927027   42.030895
 H  -12.843187   11.796380   40.263736
 H  -15.058327   10.646131   40.664856
 H  -17.372423    9.789069   41.144902
 H  -17.299665   16.465951   45.940222
 H  -17.127208   17.076245   44.278478
 H  -19.108247   17.748101   43.136604
 H  -20.651869   17.581297   44.004222
 H  -20.349924   15.811847   42.203244
 H  -20.527939   15.122240   43.830322
 H   -8.418364   14.550575   39.616896
 H   -8.335943   16.123693   40.425843
 H   -9.269579   14.370209   37.305895
 H   -9.720909   15.506476   35.157048
 H   -9.934396   17.977836   35.073203
 H  -14.882713   15.167500   41.743443
 H  -19.564189   13.159701   42.818874
 H  -17.907452   15.539688   42.313086
 H  -18.332126   14.383291   45.110606
 H  -16.784023   14.624406   44.273064
