51 
5nhp_ligand_ani.xyz
 C   -4.558317   -0.740895   -0.227052
 C   -3.647403   -1.371669   -1.053997
 C   -4.171827   -2.675033   -1.201710
 N    4.271745   -0.163872   -1.040719
 C   -1.322417    1.753140    0.152083
 C    0.030125    1.208511   -0.047954
 C    1.159917    1.855901   -0.496215
 C    2.186482    0.897276   -0.573585
 C    1.669753   -0.307731   -0.161047
 C   -0.482457   -1.141122    0.797443
 C    2.478179   -1.558669   -0.081792
 C    3.577835   -1.443286   -1.136624
 C    3.602118    1.038299   -0.936851
 C    5.718113   -0.142382   -0.933073
 O    4.161670    2.114784   -1.092597
 C    6.185859   -0.257919    0.508037
 O    5.771242   -1.507007    1.013291
 C    5.926091   -1.606321    2.405499
 N    0.359261   -0.127437    0.177986
 C   -1.522260    3.110161    0.399552
 C   -2.835402    3.527107    0.596777
 N   -3.877981    2.698541    0.553485
 N   -2.365818    0.907512    0.076295
 C   -3.574291    1.424062    0.293113
 N   -4.634591    0.550572    0.279859
 N   -5.302135   -2.837000   -0.529617
 N   -5.529390   -1.645135    0.059269
 C   -6.696765   -1.451820    0.889118
 H   -2.767060   -0.920962   -1.480804
 H   -3.779946   -3.511706   -1.768453
 H    1.264204    2.899076   -0.777233
 H   -1.113315   -0.687247    1.563274
 H   -1.135794   -1.618569    0.056431
 H    0.147047   -1.905456    1.261161
 H    1.887157   -2.465933   -0.260641
 H    2.944863   -1.646270    0.909295
 H    4.320777   -2.232980   -1.008218
 H    3.147197   -1.553021   -2.142742
 H    6.065013    0.798452   -1.365974
 H    6.128913   -0.973611   -1.516576
 H    5.754158    0.563378    1.102242
 H    7.284736   -0.165520    0.555550
 H    6.974379   -1.460845    2.711783
 H    5.303508   -0.868278    2.935983
 H    5.609457   -2.610583    2.698167
 H   -0.696764    3.808936    0.468817
 H   -3.062430    4.571390    0.802795
 H   -5.538798    0.986367    0.397510
 H   -6.415351   -1.021074    1.856153
 H   -7.433963   -0.800026    0.405584
 H   -7.138934   -2.435659    1.044117
