56 
5ni5_ligand_xtb.xyz
 C    4.575686    2.442466    1.886680
 C    5.823705    1.771028    2.408618
 O    7.117296    2.498464    0.200471
 O    8.032561    0.609024    1.497911
 C    5.690984   -1.106411    0.509250
 C    4.904921   -1.983292   -0.215943
 C    4.317583   -1.575852   -1.410364
 C    4.519201   -0.278455   -1.867263
 C    5.304553    0.601523   -1.141796
 C    3.432153   -2.534556   -2.165197
 C    2.095255   -2.549670   -1.450998
 C    0.030394   -1.364317   -1.225022
 C   -1.984115   -1.487084    0.075439
 C   -3.010637   -1.792264    1.070015
 C   -3.177017    0.568774    1.866747
 C   -5.935840    0.423419    2.049328
 C   -3.017948    0.457905   -1.176689
 C   -4.324147    0.003160   -1.336951
 C   -5.341526    0.900248   -1.600024
 C   -5.074590    2.254272   -1.710021
 C   -3.767913    2.695936   -1.575946
 C   -2.735664    1.811745   -1.320366
 S    6.889227    1.322244    0.995919
 C    5.879799    0.179804    0.040021
 O    1.780918   -3.349843   -0.601946
 N    1.263377   -1.520959   -1.801526
 N   -0.782974   -0.418673   -1.574125
 C   -1.936653   -0.477477   -0.866071
 S   -0.523189   -2.440802    0.017701
 O   -3.154251   -2.898955    1.540824
 C   -3.820853   -0.613079    1.509703
 C   -3.897363    1.662812    2.304734
 C   -5.278329    1.590957    2.390018
 C   -5.208659   -0.676382    1.620956
Cl   -6.050342   -2.107171    1.159798
Cl   -3.420645    4.382528   -1.717569
 H    4.860898    3.263746    1.233305
 H    3.970927    1.738806    1.317491
 H    3.973586    2.835887    2.702931
 H    5.622936    0.851096    2.949908
 H    6.422695    2.436787    3.024621
 H    6.175793   -1.411158    1.423113
 H    4.740060   -2.988747    0.140302
 H    4.078153    0.043927   -2.799486
 H    5.491969    1.608561   -1.479385
 H    3.848695   -3.540979   -2.129063
 H    3.311441   -2.222942   -3.202274
 H   -2.099957    0.618398    1.806885
 H   -7.010201    0.355665    2.113093
 H   -4.535789   -1.052613   -1.266256
 H   -6.353105    0.544213   -1.718897
 H   -5.866480    2.959423   -1.906233
 H   -1.721136    2.162110   -1.219000
 H    1.516289   -0.846667   -2.510157
 H   -3.383305    2.571579    2.576909
 H   -5.846224    2.445406    2.724690
