50 
5ni7_ligand_dft.xyz
 C   -2.409092    4.071476    0.309283
 C   -4.615576    3.025350   -0.060987
 C    3.424482   -1.561531   -1.401309
 C    3.560342   -1.767593    0.996181
 C   -5.381711    1.876221   -0.203646
 C    3.808837   -0.225917   -1.315604
 C    3.959683   -0.441803    1.093932
 C   -2.657589    1.647658    0.225272
 C   -1.319228   -0.927619   -0.281344
 C   -3.180006   -2.014514    0.554892
 C   -3.243609    2.914958    0.157514
 C   -3.397706    0.480744    0.068548
 C   -2.693559   -0.817596    0.106689
 C    3.266142   -2.336356   -0.248207
 C   -4.790115    0.610996   -0.138259
 C    4.052764    0.326612   -0.064292
 C   -0.809951   -2.177095   -0.093227
 C    1.132203   -3.693578   -0.042713
 C    1.775701    2.663734   -0.463613
 C   -6.869450   -0.473444   -0.543782
 C    2.642679   -3.708762   -0.321589
 C    2.891260    2.824294    0.558827
 N   -1.698545    4.980672    0.428322
 N    0.508039   -2.523199   -0.373899
 O    0.540212   -4.651331    0.417390
 O    4.783874    2.538182   -1.279117
 O    5.384108    2.232092    1.176369
 O   -5.484563   -0.537831   -0.269839
 S   -1.992828   -3.271033    0.545263
 S    4.453485    2.066633    0.063763
 H   -5.084101    4.001983   -0.115519
 H    3.222234   -2.000327   -2.375200
 H    3.453905   -2.366147    1.896681
 H   -6.447343    1.976224   -0.369092
 H    3.921409    0.387906   -2.203248
 H    4.197283   -0.001521    2.057324
 H   -1.593172    1.578367    0.420763
 H   -0.740365   -0.117072   -0.710933
 H   -4.173643   -2.225981    0.918769
 H    2.088564    3.044518   -1.439157
 H    1.487207    1.612902   -0.574651
 H    0.898290    3.231434   -0.138615
 H   -7.417314    0.009112    0.274529
 H   -7.065600    0.058360   -1.482360
 H   -7.199892   -1.507708   -0.639180
 H    3.076457   -4.393505    0.411143
 H    2.792086   -4.157376   -1.310444
 H    2.637944    2.396127    1.532862
 H    3.155313    3.876099    0.708946
 H    1.085730   -1.761591   -0.701826
