50 
5ni7_ligand_ani.xyz
 C   -4.950433    3.840163   -1.114741
 C   -6.519974    2.194873   -0.173861
 C    3.004733   -0.197908   -1.541845
 C    4.272904   -2.022288   -0.621082
 C   -6.765488    0.931509    0.345944
 C    3.916263    0.707668   -1.019412
 C    5.196890   -1.128981   -0.094237
 C   -4.198525    1.611239   -0.443910
 C   -2.268670   -0.707978   -0.837976
 C   -3.006302   -1.426614    1.229828
 C   -5.229030    2.539736   -0.568951
 C   -4.419127    0.338467    0.068949
 C   -3.280803   -0.609002    0.168021
 C    3.168467   -1.570587   -1.344062
 C   -5.726713    0.006655    0.474134
 C    4.998592    0.233321   -0.285966
 C   -1.263574   -1.571171   -0.504646
 C    0.939449   -2.583240   -0.908572
 C    4.151523    2.303248    2.147326
 C   -7.209264   -1.619036    1.365447
 C    2.131534   -2.547215   -1.854681
 C    5.535450    1.676415    2.094915
 N   -4.719447    4.885878   -1.555836
 N   -0.142576   -1.823947   -1.298551
 O    0.955708   -3.202769    0.135195
 O    6.023126    2.651259   -0.304155
 O    7.433525    0.719685    0.564805
 O   -5.909780   -1.241671    0.969258
 S   -1.518812   -2.291541    1.060845
 S    6.145557    1.392188    0.426392
 H   -7.328948    2.912987   -0.271136
 H    2.152875    0.167636   -2.110612
 H    4.411082   -3.090863   -0.470110
 H   -7.773903    0.676824    0.650722
 H    3.800820    1.776315   -1.177522
 H    6.071522   -1.479018    0.447231
 H   -3.190577    1.892279   -0.731550
 H   -2.314776   -0.172818   -1.783678
 H   -3.623736   -1.556734    2.107645
 H    4.128996    3.223576    1.558152
 H    3.383502    1.623082    1.763847
 H    3.901895    2.543177    3.185457
 H   -7.579798   -0.982180    2.178810
 H   -7.913272   -1.581048    0.524209
 H   -7.124776   -2.646848    1.720107
 H    2.550504   -3.556892   -1.884868
 H    1.809661   -2.289180   -2.869901
 H    5.586513    0.714641    2.615309
 H    6.297538    2.335977    2.523996
 H   -0.126936   -1.362441   -2.195762
