59 
5nib_ligand_ani.xyz
 C    6.342997    3.734958   -0.035199
 C    7.448695    1.417384   -2.732061
 C    3.659456   -0.899187    3.933275
 C   -4.713800   -1.271886    0.573973
 C   -5.508022   -1.195599   -1.695046
 C   -5.605575   -0.269212    0.925531
 C   -6.407407   -0.191939   -1.359185
 C    6.295105    1.292421   -0.204002
 C    0.747245   -1.922160    0.790617
 C    4.981284   -0.885166    3.533211
 C    2.069790   -0.751649   -0.700385
 C    6.613901    2.526783   -0.768123
 C    3.038990   -1.160845    1.616555
 C    6.536852    0.111182   -0.902923
 C   -6.442016    0.266718   -0.048103
 C    4.427118   -1.142179    1.335876
 C   -0.099631   -1.839438   -0.276810
 C   -5.428099    3.201263    1.056848
 C   -6.651397    3.084881    0.162123
 N    5.361522   -1.001727    2.256072
 C    7.195014    2.593611   -2.038172
 C    2.683248   -1.041668    2.953224
 C    7.121301    0.186494   -2.166711
 C    2.007040   -1.281586    0.561428
 C   -4.656855   -1.748191   -0.737274
 C   -2.280949   -2.211586   -1.345772
 C   -3.658811   -2.817896   -1.121323
 C    6.180975   -1.222835   -0.290904
 N    6.125993    4.711369    0.549789
 N   -1.392917   -2.368052   -0.304775
 O   -1.993688   -1.609298   -2.360103
 O   -7.862002    1.439811    1.823507
 O   -8.652861    1.572013   -0.591842
 O    4.788341   -1.286869    0.048691
 S    0.613470   -0.967852   -1.606202
 S   -7.578117    1.561738    0.395619
 H    7.902486    1.456674   -3.718516
 H    3.392880   -0.801635    4.980081
 H   -4.053979   -1.692104    1.329293
 H   -5.468471   -1.560858   -2.719092
 H   -5.664599    0.098658    1.946347
 H   -7.089362    0.225584   -2.094922
 H    5.858504    1.266493    0.789860
 H    0.501937   -2.456689    1.705174
 H    5.781514   -0.777057    4.260753
 H    2.918251   -0.242422   -1.133766
 H   -5.710673    3.069621    2.104443
 H   -4.667293    2.455707    0.802532
 H   -4.982451    4.193032    0.933646
 H   -6.407020    3.144861   -0.902944
 H   -7.393442    3.858727    0.386682
 H    7.443588    3.559077   -2.469792
 H    1.628814   -1.032889    3.220221
 H    7.319371   -0.730671   -2.718419
 H   -3.959186   -3.286025   -2.063146
 H   -3.612588   -3.605658   -0.360917
 H    6.765851   -1.425241    0.609726
 H    6.323940   -2.020638   -1.022993
 H   -1.672921   -2.891155    0.511445
