59 
5nib_ligand_dft.xyz
 C    8.639575    1.882291   -1.076170
 C    7.267261   -1.576033   -1.180982
 C    2.305241    3.132527    0.057961
 C   -5.144574   -1.368241    1.136010
 C   -5.170598   -1.549244   -1.267438
 C   -5.772537   -0.129062    1.057090
 C   -5.803391   -0.316697   -1.360537
 C    6.990203    0.746832    0.337630
 C   -0.134449   -0.519530    0.301326
 C    3.566688    3.048768    0.616375
 C    1.799676   -1.758190    0.034166
 C    7.875717    0.710838   -0.743766
 C    2.084707    0.738392    0.368398
 C    6.246813   -0.381975    0.666435
 C   -6.088780    0.388128   -0.194032
 C    3.388539    0.789913    0.916866
 C   -0.659643   -1.765746    0.121456
 C   -4.498876    3.183377    0.546316
 C   -5.484050    3.113194   -0.610837
 N    4.099716    1.896328    1.039076
 C    8.015899   -0.452172   -1.507593
 C    1.567794    1.955256   -0.062503
 C    6.391255   -1.539576   -0.100976
 C    1.298427   -0.504820    0.249333
 C   -4.831392   -2.087794   -0.021277
 C   -2.562819   -3.307048   -0.043576
 C   -4.087966   -3.396332    0.064732
 C    5.268929   -0.360660    1.816894
 N    9.255173    2.827221   -1.343998
 N   -2.020996   -2.067839    0.148285
 O   -1.885560   -4.295558   -0.257593
 O   -7.425314    2.309795    1.003416
 O   -7.697536    2.004489   -1.510377
 O    3.917504   -0.372701    1.353881
 S    0.574250   -2.962055   -0.119690
 S   -6.867593    1.994804   -0.309557
 H    7.370870   -2.482903   -1.767851
 H    1.910286    4.082145   -0.284672
 H   -4.899403   -1.784795    2.109522
 H   -4.940224   -2.105954   -2.171573
 H   -6.033782    0.428092    1.950763
 H   -6.092482    0.091004   -2.324050
 H    6.866078    1.660210    0.908885
 H   -0.743542    0.355639    0.502180
 H    4.191656    3.930625    0.732373
 H    2.837748   -2.039304   -0.054257
 H   -5.007167    3.479431    1.467276
 H   -4.008677    2.218915    0.712922
 H   -3.724462    3.922897    0.323660
 H   -5.020415    2.782786   -1.544834
 H   -5.968946    4.077548   -0.793923
 H    8.704297   -0.467022   -2.345825
 H    0.582357    1.979408   -0.518587
 H    5.810501   -2.422786    0.153503
 H   -4.402513   -4.082559   -0.726298
 H   -4.299145   -3.900055    1.014819
 H    5.438757    0.502328    2.463735
 H    5.351459   -1.276258    2.407004
 H   -2.645641   -1.289937    0.307206
