61 
5nk9_ligand_dft.xyz
 C   -6.251027   -1.003942   -0.584477
 C   -6.915990   -2.381135   -0.536258
 C   -5.931467   -3.515253   -0.203186
 C   -4.929196   -3.748128   -1.337655
 O   -6.655707   -4.717860    0.045655
 C   -5.227479   -3.194629    1.119060
 C   -4.532437   -1.832264    1.103609
 C   -5.510892   -0.710175    0.726717
 N   -4.860786    0.601118    0.693680
 C   -3.855826    0.927871   -0.164051
 O   -3.430290    0.178739   -1.033717
 C   -3.274963    2.306191    0.021425
 C   -1.949136    2.484120   -0.370385
 C   -4.014573    3.384686    0.504913
 C   -3.413887    4.636284    0.610937
 C   -2.081613    4.807763    0.265527
 C   -1.337580    3.727404   -0.223977
 N   -0.001788    3.950852   -0.591713
 C    1.082798    3.131880   -0.459855
 S    1.034232    1.531965    0.235233
 N    2.270464    3.559792   -0.820329
 C    3.204290    2.603850   -0.553345
 C    2.759601    1.438114   -0.001422
 C    3.467119    0.219919    0.426677
 O    2.939017   -0.615091    1.141227
 N    4.768706    0.123859   -0.028803
 C    5.583507   -1.004583    0.212988
 C    6.074756   -1.751546   -0.864059
Cl    5.641383   -1.296101   -2.500648
 C    6.906321   -2.846257   -0.677591
 C    7.247202   -3.213450    0.617667
 C    6.776843   -2.474407    1.695944
 C    5.958074   -1.358846    1.519907
 C    5.507303   -0.550046    2.704582
 H   -7.004011   -0.225637   -0.752294
 H   -5.540606   -0.947094   -1.413152
 H   -7.407390   -2.589421   -1.496455
 H   -7.700232   -2.394942    0.232225
 H   -4.309733   -2.869068   -1.538178
 H   -4.271912   -4.585378   -1.083270
 H   -5.457647   -3.996872   -2.267208
 H   -7.085338   -4.971727   -0.780957
 H   -4.507523   -3.988273    1.346546
 H   -5.988766   -3.220933    1.909892
 H   -3.703038   -1.828706    0.390878
 H   -4.105661   -1.620396    2.090847
 H   -6.264967   -0.638896    1.522087
 H   -4.985166    1.194689    1.498748
 H   -1.433319    1.642144   -0.818541
 H   -5.064426    3.267978    0.756325
 H   -3.987020    5.484790    0.971213
 H   -1.608706    5.779893    0.375898
 H    0.261504    4.895894   -0.836070
 H    4.243376    2.827234   -0.771814
 H    4.976764    0.636699   -0.874521
 H    7.267827   -3.400908   -1.536026
 H    7.889782   -4.072363    0.782455
 H    7.063258   -2.755580    2.705390
 H    5.551200    0.521983    2.485465
 H    4.469504   -0.785857    2.957868
 H    6.140191   -0.753154    3.572649
