60 
5nka_ligand_ani.xyz
 C    6.602206    0.478982   -1.759825
 C    8.063756    0.953601   -1.826555
 C    8.396634    2.010845   -0.754773
 C    9.124805    1.372416    0.436730
 O    9.451038    2.213014    1.447059
 O    9.412362    0.208074    0.525327
 C    7.113308    2.725667   -0.298190
 C    6.143866    1.744699    0.379527
 C    6.114579    0.368320   -0.310208
 N    4.781607   -0.202658   -0.203124
 C    4.562724   -1.537092   -0.355859
 O    5.454897   -2.324353   -0.639459
 C    3.142891   -1.989040   -0.163736
 C    2.216558   -1.271394    0.591099
 C    2.770101   -3.201611   -0.738410
 C    1.471458   -3.668464   -0.578789
 C    0.537667   -2.947475    0.160668
 C    0.912111   -1.735928    0.747468
 N    0.040830   -0.965013    1.542138
 C   -1.301545   -0.751239    1.402590
 S   -2.150118   -0.930788   -0.104093
 N   -2.021683   -0.340948    2.412401
 C   -3.323375   -0.183982    2.024685
 C   -3.608851   -0.446050    0.717346
 C   -4.877781   -0.415577   -0.036095
 O   -4.982041   -0.900247   -1.149501
 N   -5.919341    0.208871    0.620773
 C   -7.123067    0.571650   -0.034571
 C   -7.387087    1.919909   -0.289595
Cl   -6.209424    3.121915    0.175288
 C   -8.551042    2.330335   -0.925927
 C   -9.481764    1.370792   -1.299315
 C   -9.239519    0.027425   -1.034815
 C   -8.069960   -0.396193   -0.404473
 C   -7.849164   -1.857353   -0.111652
 H    6.498560   -0.498923   -2.241578
 H    5.950121    1.175243   -2.305253
 H    8.259705    1.360968   -2.823980
 H    8.734489    0.101818   -1.678999
 H    9.095391    2.750990   -1.170351
 H    9.162308    3.113124    1.244058
 H    6.633660    3.164864   -1.180416
 H    7.335332    3.570045    0.366644
 H    5.137112    2.181986    0.360934
 H    6.411538    1.606960    1.433936
 H    6.786139   -0.327245    0.204206
 H    3.989916    0.418827   -0.152524
 H    2.497644   -0.352547    1.103174
 H    3.513171   -3.762854   -1.297385
 H    1.177093   -4.613222   -1.027233
 H   -0.465722   -3.340000    0.301581
 H    0.404156   -0.606014    2.415167
 H   -4.045370    0.106336    2.782604
 H   -5.672767    0.815209    1.389007
 H   -8.715989    3.386351   -1.115634
 H  -10.401467    1.671707   -1.793039
 H   -9.976653   -0.721124   -1.316891
 H   -7.096543   -2.280126   -0.783200
 H   -7.487398   -1.996996    0.911362
 H   -8.779313   -2.418459   -0.237271
