60 
5nka_ligand_dft.xyz
 C    6.450625    0.626764   -1.696276
 C    7.909833    1.096786   -1.803123
 C    8.311145    2.092975   -0.690618
 C    9.164588    1.434452    0.393677
 O    9.792700    2.292811    1.230720
 O    9.274936    0.249881    0.565781
 C    7.058729    2.712024   -0.034848
 C    6.163222    1.642517    0.610297
 C    6.081590    0.352704   -0.235227
 N    4.762348   -0.244092   -0.089981
 C    4.546579   -1.564286   -0.365216
 O    5.443144   -2.332092   -0.678235
 C    3.119344   -2.027110   -0.251197
 C    2.204015   -1.419605    0.605084
 C    2.723194   -3.112499   -1.033010
 C    1.415388   -3.572047   -0.959186
 C    0.499559   -2.977643   -0.096062
 C    0.891489   -1.889989    0.686368
 N    0.015208   -1.274572    1.600253
 C   -1.300837   -0.956358    1.442123
 S   -2.206355   -1.241511   -0.023859
 N   -1.956152   -0.354856    2.407615
 C   -3.229375   -0.086968    2.001354
 C   -3.571337   -0.463552    0.735374
 C   -4.841222   -0.386017   -0.005688
 O   -5.025879   -1.013453   -1.034930
 N   -5.793704    0.431553    0.572399
 C   -7.042881    0.698052   -0.031609
 C   -7.381224    2.010811   -0.379842
Cl   -6.232009    3.304078   -0.094001
 C   -8.609503    2.326397   -0.942159
 C   -9.519830    1.303699   -1.175057
 C   -9.202510   -0.002543   -0.824200
 C   -7.979387   -0.328602   -0.237982
 C   -7.686416   -1.743925    0.176539
 H    6.317066   -0.290850   -2.275092
 H    5.764925    1.377720   -2.112914
 H    8.070003    1.562439   -2.780434
 H    8.568666    0.226377   -1.744001
 H    8.910123    2.903834   -1.126581
 H    9.635807    3.204972    0.953080
 H    6.505522    3.244058   -0.816532
 H    7.330260    3.465801    0.713434
 H    5.161098    2.070415    0.742068
 H    6.526762    1.395792    1.613254
 H    6.794554   -0.381697    0.148099
 H    3.966826    0.376921   -0.127849
 H    2.509224   -0.591667    1.240171
 H    3.453850   -3.584608   -1.680400
 H    1.102961   -4.419038   -1.561632
 H   -0.502798   -3.382686   -0.007909
 H    0.414931   -0.875791    2.438775
 H   -3.904079    0.382386    2.709808
 H   -5.440321    1.158679    1.178899
 H   -8.837155    3.354891   -1.198212
 H  -10.482353    1.531049   -1.621877
 H   -9.927097   -0.794425   -0.991336
 H   -7.028069   -2.228481   -0.550432
 H   -7.174988   -1.770153    1.144408
 H   -8.611666   -2.320717    0.257182
