57 
5nkd_ligand_xtb.xyz
 O    0.023720    2.202594   -0.801821
 C   -0.598277    2.882830    0.143935
 O   -0.321333    2.834234    1.314179
 C   -1.728161    3.711934   -0.441351
 C   -3.085871    3.116962   -0.066945
 C   -3.175950    1.607635   -0.329422
 C   -4.226834    3.673608   -0.924170
 C   -5.301043    2.595916   -0.854548
 N   -4.587457    1.366912   -0.527394
 C   -5.331310    0.272214   -0.281657
 O   -6.545651    0.310709   -0.426864
 C   -4.691192   -0.995494    0.192735
 C   -3.463810   -1.491229   -0.231337
 C   -5.484696   -1.762121    1.044859
 C   -5.069433   -3.010537    1.464182
 C   -3.855219   -3.509979    1.035920
 C   -3.044527   -2.746694    0.199088
 N   -1.834416   -3.314307   -0.222773
 C   -0.609735   -2.755810   -0.268355
 S   -0.279723   -1.050852   -0.029538
 N    0.448312   -3.494331   -0.453914
 C    1.575531   -2.771808   -0.389603
 C    1.426219   -1.430456   -0.152591
 C    2.420129   -0.377780    0.014276
 O    2.136306    0.813282    0.008487
 N    3.691303   -0.823538    0.211627
 C    4.817199    0.011925    0.326368
 C    5.901968   -0.209457   -0.523802
Cl    5.813456   -1.502521   -1.681598
 C    7.039825    0.570485   -0.465288
 C    7.096641    1.597532    0.461544
 C    6.042908    1.807007    1.329927
 C    4.898276    1.017935    1.294957
 C    3.809932    1.225853    2.295728
 H    0.793627    1.679572   -0.445175
 H   -1.608571    3.722890   -1.525217
 H   -1.657726    4.729731   -0.057235
 H   -3.282989    3.304351    0.991706
 H   -2.782668    1.018780    0.501152
 H   -2.612355    1.360369   -1.238809
 H   -4.587415    4.634279   -0.563776
 H   -3.883659    3.797237   -1.952180
 H   -5.845583    2.470769   -1.793763
 H   -6.040101    2.793479   -0.070999
 H   -2.856034   -0.944187   -0.933003
 H   -6.442910   -1.367465    1.344208
 H   -5.694540   -3.600415    2.116825
 H   -3.526197   -4.491696    1.345253
 H   -1.797659   -4.326388   -0.201727
 H    2.506274   -3.291712   -0.535618
 H    3.899799   -1.777333   -0.050496
 H    7.860992    0.380058   -1.137658
 H    7.974005    2.223360    0.511070
 H    6.107115    2.593622    2.066480
 H    2.976479    1.765091    1.845460
 H    3.425866    0.270303    2.649477
 H    4.177111    1.799243    3.142441
