56 
5nki_ligand_dft.xyz
 C    6.455843   -0.577984    1.368651
 C    7.923285   -0.980296    1.332240
 O    8.068125   -2.361016    1.084364
 C    7.490065   -2.696430   -0.155321
 C    6.001356   -2.367253   -0.192177
 N    5.800029   -0.959739    0.117004
 C    4.557081   -0.389612   -0.168197
 C    3.477633   -1.150880   -0.631228
 C    4.366130    0.996854   -0.010244
 C    3.151466    1.556176   -0.351596
 S    2.934965    3.322770   -0.143065
 O    4.242728    3.904796    0.145822
 O    2.120910    3.813017   -1.250145
 C    1.945813    3.419864    1.347597
 C    2.089131    0.819763   -0.867548
 C    2.260727   -0.555530   -0.982181
 N    1.234431   -1.383540   -1.464457
 C   -0.098834   -1.333625   -1.171491
 S   -0.819590   -0.161351   -0.096931
 N   -0.916659   -2.233768   -1.661598
 C   -2.178281   -2.013960   -1.192100
 C   -2.352627   -0.952175   -0.354016
 C   -3.538117   -0.425241    0.343295
 O   -3.440977    0.387477    1.247650
 N   -4.740591   -0.941538   -0.096865
 C   -5.990470   -0.499061    0.392637
 C   -6.912254    0.084617   -0.484125
Cl   -6.487651    0.291770   -2.172060
 C   -8.164661    0.502152   -0.057818
 C   -8.501798    0.344615    1.280223
 C   -7.601234   -0.243621    2.159462
 C   -6.347543   -0.687115    1.738100
 C   -5.414903   -1.364662    2.703581
 H    6.388523    0.500571    1.517480
 H    5.963804   -1.071286    2.223472
 H    8.392180   -0.781456    2.298911
 H    8.444415   -0.397027    0.556292
 H    7.639504   -3.769886   -0.294861
 H    7.998979   -2.157919   -0.970837
 H    5.463594   -3.020357    0.517568
 H    5.628351   -2.571160   -1.200500
 H    3.553300   -2.230385   -0.695700
 H    5.164453    1.649129    0.322976
 H    2.501387    2.972895    2.173558
 H    1.770193    4.481321    1.536265
 H    0.998551    2.902386    1.185624
 H    1.192109    1.318530   -1.216094
 H    1.498432   -2.239131   -1.933586
 H   -2.962898   -2.700907   -1.491603
 H   -4.746602   -1.299092   -1.042235
 H   -8.853348    0.949756   -0.765294
 H   -9.474142    0.673327    1.632691
 H   -7.879199   -0.381100    3.200548
 H   -4.921112   -2.222179    2.234613
 H   -4.629184   -0.675269    3.026301
 H   -5.960795   -1.717217    3.582782
