54 
5nkn_ligand_xtb.xyz
 O   -1.441127    3.769671   -1.123740
 C   -1.371587    2.613597   -1.484019
 C   -2.391915    1.958900   -2.396519
 N   -0.389895    1.768002   -1.106920
 C    0.706207    2.121446   -0.215478
 C    1.643778    0.938278   -0.060568
 C    2.937186    1.144563   -0.429536
 C    0.214285    2.644246    1.149678
 C   -0.193128    1.542860    2.133561
 C   -1.026994    0.506912    1.444901
 C   -2.395819    0.427747    1.636941
 C   -3.145194   -0.524089    0.963510
 C   -2.522315   -1.405928    0.057420
 C   -1.139434   -1.333677   -0.128845
 O   -0.398856   -2.083602   -0.993790
 C   -0.926689   -3.229639   -1.625689
 O   -3.273009   -2.366600   -0.600275
 C   -4.226098   -1.880344   -1.523696
 O   -4.492277   -0.677058    1.105650
 C   -5.169807    0.141377    2.028154
 C   -0.394016   -0.370853    0.576899
 C    1.077809   -0.290849    0.394918
 C    1.785129   -1.411635    0.749009
 C    3.165452   -1.629085    0.819905
 C    4.221104   -0.882205    0.360212
 C    4.111566    0.301308   -0.509118
 O    5.025667    0.618223   -1.268795
 O    5.422648   -1.395154    0.693307
 C    6.631363   -0.713361    0.416491
 H   -1.903933    1.543954   -3.275410
 H   -3.124097    2.698708   -2.706189
 H   -2.894642    1.157411   -1.858337
 H   -0.391651    0.829071   -1.469609
 H    1.242258    2.956195   -0.687050
 H    3.164465    2.119405   -0.849222
 H    1.012707    3.240216    1.594487
 H   -0.629217    3.305763    0.954034
 H    0.704822    1.069253    2.538467
 H   -0.744627    1.991093    2.960660
 H   -2.865547    1.114476    2.321407
 H   -1.425848   -3.889832   -0.915498
 H   -0.061456   -3.734800   -2.056266
 H   -1.623480   -2.967930   -2.425799
 H   -4.978072   -1.253912   -1.040686
 H   -3.742441   -1.312138   -2.328316
 H   -4.704522   -2.763587   -1.943222
 H   -6.209470   -0.180772    1.994314
 H   -4.782628    0.007077    3.042507
 H   -5.108759    1.198149    1.749299
 H    1.185563   -2.239291    1.105925
 H    3.468807   -2.545453    1.313014
 H    7.402373   -1.296080    0.919964
 H    6.831924   -0.667089   -0.654363
 H    6.617076    0.302852    0.816693
