54 
5nkn_ligand_dft.xyz
 O   -0.889575    4.162192   -1.003853
 C   -1.154590    3.013299   -1.326727
 C   -2.245046    2.675447   -2.328375
 N   -0.475509    1.940332   -0.841684
 C    0.596430    2.098235    0.134502
 C    1.548953    0.900200    0.104645
 C    2.837909    1.195537   -0.229884
 C    0.084224    2.414969    1.559957
 C   -0.338105    1.194353    2.395830
 C   -1.132435    0.209345    1.579176
 C   -2.515091    0.118389    1.716563
 C   -3.258276   -0.710909    0.877758
 C   -2.599757   -1.467350   -0.103089
 C   -1.210197   -1.392219   -0.225586
 O   -0.576359   -2.042572   -1.245042
 C   -0.628384   -3.463431   -1.217019
 O   -3.324926   -2.263623   -0.946492
 C   -3.757819   -1.583799   -2.115688
 O   -4.604733   -0.834843    0.901509
 C   -5.322864   -0.052525    1.830889
 C   -0.460061   -0.553201    0.616478
 C    1.017666   -0.406066    0.426738
 C    1.771560   -1.534260    0.603630
 C    3.171135   -1.752263    0.550452
 C    4.195522   -0.935793    0.162338
 C    4.049556    0.408564   -0.436602
 O    4.979427    0.903280   -1.071871
 O    5.414239   -1.498381    0.230644
 C    6.587814   -0.707751    0.419836
 H   -1.827611    2.704532   -3.340202
 H   -3.028031    3.432261   -2.261888
 H   -2.678377    1.683886   -2.160725
 H   -0.785537    1.014004   -1.086865
 H    1.145763    2.983957   -0.191156
 H    3.039820    2.229115   -0.501350
 H    0.878138    2.949189    2.094645
 H   -0.748433    3.115531    1.447624
 H    0.556192    0.698589    2.790928
 H   -0.919187    1.531974    3.260146
 H   -3.005259    0.723226    2.471426
 H   -0.229885   -3.847924   -0.269572
 H    0.008466   -3.801182   -2.036018
 H   -1.648951   -3.827891   -1.356021
 H   -4.414286   -0.744379   -1.856802
 H   -2.899253   -1.221602   -2.694987
 H   -4.317040   -2.309148   -2.709282
 H   -6.375074   -0.287460    1.668493
 H   -5.050947   -0.304052    2.863587
 H   -5.160163    1.019714    1.663684
 H    1.209210   -2.418570    0.892378
 H    3.498791   -2.740802    0.862889
 H    7.336153   -1.409833    0.791615
 H    6.910793   -0.249525   -0.513130
 H    6.419833    0.073025    1.168282
