19 
5nn4_ligand_ani.xyz
 C   -1.419477   -1.177438    0.199377
 C   -0.704731    1.130088    0.806249
 C    2.131919   -0.092230    0.166985
 C   -0.241240   -0.324121    0.627552
 N    0.891255   -0.459994   -0.265160
 O   -2.462682   -1.209736    0.800361
 O   -1.192329   -1.894599   -0.917728
 O    2.304070    0.448889    1.249055
 C    3.276811   -0.400731   -0.774699
 S   -1.353613    1.901645   -0.697861
 H    0.121247    1.717083    1.212287
 H   -1.526076    1.144879    1.527895
 H    0.057049   -0.673789    1.624441
 H    0.785661   -1.030936   -1.091876
 H   -2.011033   -2.387404   -1.095504
 H    3.929524   -1.142168   -0.304085
 H    3.865117    0.509453   -0.916263
 H    2.951661   -0.777461   -1.748856
 H   -0.206294    1.864144   -1.392414
