32 
5nn6_ligand_dft.xyz
 O   -3.316346    0.186469   -0.488859
 O   -0.484377    2.927404   -0.211755
 O    0.183871   -2.421702   -0.370832
 O    2.631243    0.209278   -1.141176
 O    1.207622   -0.830809    2.011876
 C   -2.843532   -0.951341    0.204389
 C    0.759483    2.306297    0.041691
 C   -1.599963   -0.498981    0.945407
 C   -0.306638   -0.287120   -1.245305
 C    0.772365   -1.334352   -1.041868
 C    1.980649   -0.721435   -0.302033
 C    1.582914    0.046081    0.973667
 C    0.409027    1.005667    0.767641
 N   -0.742469    0.352326    0.041193
 H   -4.174797   -0.000720   -0.885485
 H   -0.353018    3.750282   -0.696620
 H    0.833234   -3.126931   -0.260097
 H    3.158126   -0.256965   -1.801632
 H    1.996721   -1.242915    2.384075
 H   -2.610182   -1.780546   -0.476192
 H   -3.562825   -1.317402    0.947175
 H    1.323354    2.117194   -0.877522
 H    1.389583    2.902759    0.712969
 H   -1.005304   -1.332158    1.310337
 H   -1.874944    0.157414    1.773956
 H   -1.188763   -0.709977   -1.722464
 H    0.073433    0.515157   -1.879422
 H    1.112747   -1.628760   -2.047111
 H    2.664345   -1.529045    0.000583
 H    2.447539    0.660743    1.259512
 H    0.017444    1.263457    1.754328
 H   -1.351348    1.138110   -0.240303
