30 
5npb_ligand_ani.xyz
 C   -2.004990    1.055158    0.261517
 C   -0.591548    1.072424   -0.313900
 C    0.121338   -0.240955    0.019432
 C   -2.774823   -0.180891   -0.182093
 C   -2.060245   -1.465496    0.204605
 C   -0.660159   -1.481842   -0.392687
 C    0.156407    2.307234    0.221011
 O    1.362830   -0.276182   -0.746547
 O    1.464911    2.507021   -0.304643
 O   -2.685117    2.219941   -0.159929
 O   -4.053650   -0.117793    0.418247
 O   -2.880917   -2.520064   -0.280026
 S    2.710391   -0.624891    0.047790
 O    3.770842   -0.479946   -0.911984
 O    2.765913    0.564965    1.119035
 O    2.535210   -1.834965    0.809770
 H   -1.939536    1.033084    1.366389
 H   -0.674417    1.147150   -1.406925
 H    0.347327   -0.276347    1.095982
 H   -2.864412   -0.151142   -1.282149
 H   -2.002877   -1.504933    1.305825
 H   -0.100877   -2.369005   -0.077760
 H   -0.736606   -1.511281   -1.485472
 H   -0.446574    3.203339    0.040796
 H    0.280040    2.200761    1.307837
 H    1.519283    2.100133   -1.183438
 H   -3.601777    2.115960    0.131923
 H   -4.489896   -0.953371    0.198994
 H   -2.579471   -3.346660    0.115162
 H    2.567480    1.412960    0.649511
