26 
5npe_ligand_ani.xyz
 C   -0.856050   -1.382784   -0.707451
 C   -1.631415   -0.651859    0.378334
 C   -0.746946    0.381876    1.109158
 C   -0.030509    1.322367    0.115799
 C    0.842114    0.594557   -0.938609
 C    2.323856    0.547768   -0.568244
 C    0.333377   -0.793369   -1.315406
 N    0.473014   -1.848891   -0.297961
 O   -2.820032   -0.089473   -0.131160
 O    0.154365   -0.351352    1.932557
 O   -1.103606    2.023181   -0.515883
 O    2.497403   -0.001904    0.737904
 H   -1.433029   -2.068325   -1.308839
 H   -1.932807   -1.392911    1.129293
 H   -1.403045    1.000723    1.740050
 H    0.597519    2.032888    0.676918
 H    0.784730    1.204438   -1.848885
 H    2.855603   -0.062676   -1.308997
 H    2.741065    1.564599   -0.597805
 H    0.579289   -1.118207   -2.316471
 H    0.826289   -2.784345   -0.532340
 H    0.753504   -1.512199    0.632778
 H   -2.561974    0.742708   -0.559099
 H    0.972409    0.158826    2.038049
 H   -0.745964    2.667746   -1.139056
 H    3.423714   -0.245976    0.851306
