26 
5npe_ligand_xtb.xyz
 C   -0.795001   -1.372849   -0.766511
 C   -1.660015   -0.695062    0.299374
 C   -0.795865    0.287675    1.115744
 C   -0.076747    1.307310    0.199142
 C    0.837152    0.677729   -0.888506
 C    2.324720    0.672807   -0.496207
 C    0.404989   -0.709113   -1.316201
 N    0.536419   -1.787292   -0.330385
 O   -2.784104   -0.120674   -0.267364
 O    0.095076   -0.488898    1.887466
 O   -1.105907    2.058078   -0.401933
 O    2.506725   -0.148246    0.638710
 H   -1.348181   -2.061055   -1.395485
 H   -2.019408   -1.474750    0.984839
 H   -1.473453    0.863187    1.760313
 H    0.546159    1.949643    0.837919
 H    0.746815    1.319939   -1.771409
 H    2.915392    0.296315   -1.341904
 H    2.643364    1.701286   -0.288005
 H    0.719547   -0.978070   -2.319088
 H    0.922107   -2.689003   -0.595210
 H    0.779574   -1.455034    0.635563
 H   -2.566201    0.756707   -0.619246
 H    0.602694    0.070865    2.486791
 H   -0.782153    2.910992   -0.711386
 H    3.429107   -0.113045    0.912963
