30 
5npf_ligand_dft.xyz
 C    0.439333    0.869461    1.018772
 C    1.343895    1.030391   -0.202355
 C    2.044164   -1.359801   -0.055184
 C   -0.097580   -0.571120    1.047268
 C    1.061893   -1.567858    1.102033
 C    2.528407    0.084396   -0.108550
 C   -0.593316    2.007322    1.110480
 O   -1.075010    2.440982   -0.161835
 O   -0.817671   -0.902135   -0.165952
 O    3.214617   -2.151444    0.077649
 O    3.336916    0.320037   -1.240477
 O    1.758988    2.383729   -0.288097
 S   -2.417719   -0.669645   -0.279545
 O   -2.466364    0.523285   -1.307134
 O   -2.897852   -0.245367    1.018764
 O   -2.955668   -1.821857   -0.941063
 H    1.063761    0.962220    1.918288
 H    0.775310    0.764219   -1.105535
 H    1.541782   -1.578760   -1.007256
 H   -0.768792   -0.710931    1.897862
 H    1.597211   -1.438192    2.049930
 H    0.662080   -2.586739    1.082198
 H    3.089904    0.302255    0.815340
 H   -1.471920    1.698172    1.678900
 H   -0.133629    2.863309    1.612566
 H   -0.304115    2.800899   -0.631522
 H    2.994750   -3.062411   -0.148522
 H    4.022059   -0.362238   -1.235028
 H    2.468672    2.405089   -0.946663
 H   -1.997984    1.322843   -0.917474
