30 
5npf_ligand_xtb.xyz
 C    0.415377    0.840467    1.023041
 C    1.334850    1.052555   -0.185636
 C    2.056706   -1.343136   -0.083321
 C   -0.111561   -0.602997    0.959496
 C    1.057226   -1.587901    1.052238
 C    2.537397    0.112466   -0.076720
 C   -0.687332    1.916600    1.101904
 O   -1.086771    2.424149   -0.154685
 O   -0.793234   -0.852858   -0.255912
 O    3.215128   -2.144031    0.036526
 O    3.387136    0.380386   -1.167886
 O    1.742021    2.401162   -0.258497
 S   -2.384742   -0.657581   -0.282487
 O   -2.522547    0.530612   -1.269667
 O   -2.815276   -0.290190    1.027521
 O   -2.946253   -1.802718   -0.893813
 H    1.013036    0.926460    1.935259
 H    0.789287    0.782266   -1.104306
 H    1.557922   -1.537165   -1.044290
 H   -0.820380   -0.768815    1.777778
 H    1.561158   -1.467463    2.012554
 H    0.670224   -2.605846    0.982353
 H    3.077816    0.303323    0.865056
 H   -1.582943    1.497265    1.564516
 H   -0.320364    2.748290    1.713484
 H   -0.295439    2.806525   -0.565045
 H    2.956708   -3.071574    0.042419
 H    4.025323   -0.341717   -1.214867
 H    2.539172    2.420565   -0.803830
 H   -2.073245    1.328786   -0.895997
