51 
5nsp_ligand_xtb.xyz
 C    5.326045   -0.444922    0.025412
 C    6.498561   -1.189634    0.192429
 C    7.678822   -0.470212    0.224756
 N    7.706221    0.851922    0.107459
 N    5.356166    0.883873   -0.088842
 O   -4.187590   -3.593937   -0.579109
 C   -4.524878   -2.451130   -0.410493
 N   -5.815083   -1.964849   -0.398014
 C   -5.819669   -0.607777   -0.175424
 C   -6.850689    0.296136   -0.055978
 C   -6.503527    1.625896    0.204830
 C   -7.523299    2.596072    0.328593
 N   -8.349108    3.385367    0.426697
 C   -5.168482    2.014314    0.356998
 C   -4.138158    1.099544    0.235196
 C   -4.471170   -0.213734   -0.052242
 N   -3.698042   -1.345879   -0.205289
 C   -2.292807   -1.402781   -0.206273
 C   -1.636450   -2.431135    0.463140
 C   -0.258919   -2.464838    0.480247
 C   -1.558330   -0.441279   -0.892954
 C   -0.178591   -0.473070   -0.868126
 C    0.486444   -1.472523   -0.160213
 C    1.930009   -1.551621   -0.066821
 N    2.585141   -2.665547    0.179673
 N    3.878979   -2.398017    0.219466
 C    4.046648   -1.115063   -0.002574
 C    6.543090    1.455617   -0.040070
 N    2.823742   -0.521075   -0.202460
 C    2.569130    0.844751   -0.416059
 C    1.920151    1.600363    0.559458
Cl    1.420256    0.846979    2.035590
 C    1.671024    2.946016    0.345716
 C    2.069476    3.538892   -0.839219
 C    2.714552    2.792915   -1.812609
 C    2.963205    1.450258   -1.603323
 H    6.451829   -2.260538    0.289352
 H    8.639386   -0.953545    0.347397
 H   -6.622396   -2.550886   -0.525707
 H   -7.883963    0.002071   -0.151619
 H   -4.946961    3.047392    0.576961
 H   -3.112699    1.401080    0.374936
 H   -2.209719   -3.197761    0.958247
 H    0.268831   -3.250526    0.996418
 H   -2.067723    0.320426   -1.463512
 H    0.372972    0.271697   -1.421136
 H    6.558349    2.534293   -0.132927
 H    1.172201    3.520491    1.109960
 H    1.875587    4.587939   -1.000666
 H    3.024779    3.256832   -2.735766
 H    3.466650    0.856971   -2.351293
