30 
5nsx_ligand_dft.xyz
 C    6.082261   36.775972    9.709248
 C    6.101509   37.131553    8.342426
 C    5.752803   36.498305    7.149973
 N    6.020804   37.393077    6.182516
 N    6.515500   38.565697    6.597579
 C    6.570947   38.417185    7.930178
 C    7.012068   39.358854    8.895374
 C    6.987221   38.988249   10.209671
 C    6.531059   37.693197   10.628764
 C    6.523774   37.311217   12.060829
 N    5.687335   36.424701   12.491088
 C    5.734251   36.093474   13.836545
 C    4.837668   35.124716   14.318879
 C    4.846223   34.774066   15.655360
 C    5.743954   35.375453   16.551087
 C    6.632424   36.329321   16.093930
 C    6.631131   36.691685   14.741706
 C    7.582936   37.687614   14.246078
 O    8.433077   38.268534   14.896162
 N    7.444747   37.926803   12.878763
 H    5.727208   35.808758   10.047609
 H    5.350904   35.520439    6.932695
 H    5.884330   37.262302    5.191249
 H    7.342117   40.344773    8.587182
 H    7.280464   39.718772   10.958693
 H    4.147451   34.671024   13.615495
 H    4.148419   34.024437   16.017154
 H    5.738428   35.090793   17.598411
 H    7.342488   36.813358   16.756598
 H    8.133496   38.555670   12.487756
