29 
5nt0_ligand_xtb.xyz
 C   -2.356482   -0.845428   -0.206382
 C   -3.747736   -0.906281   -0.175214
 N   -4.404014   -2.059451   -0.534929
 C   -4.461655    0.247733    0.159795
 C   -3.793874    1.418068    0.459842
 C   -2.411787    1.476954    0.424347
 C   -1.684866    0.336652    0.082544
 C   -0.218918    0.327876    0.032900
 N    0.405832   -0.791122    0.165519
 C    1.772891   -0.790810    0.121341
 C    2.452465   -2.006979    0.265846
 C    3.826914   -2.038540    0.227129
 C    4.562273   -0.867362    0.045702
 C    3.913742    0.338130   -0.097480
 C    2.519849    0.389416   -0.061569
 C    1.811579    1.654731   -0.223910
 O    2.309621    2.746853   -0.402893
 N    0.431234    1.516103   -0.162435
 H   -1.776401   -1.718737   -0.459385
 H   -3.866530   -2.910099   -0.518091
 H   -5.363095   -2.150899   -0.244200
 H   -5.541200    0.215065    0.187163
 H   -4.358342    2.298269    0.729913
 H   -1.916300    2.396566    0.697761
 H    1.870714   -2.904248    0.406618
 H    4.345122   -2.980005    0.338366
 H    5.640654   -0.910068    0.017364
 H    4.455589    1.261055   -0.240105
 H   -0.104923    2.364603   -0.298683
