40 
5nt4_ligand_ani.xyz
 C   -4.788328    0.904351    0.736421
 C   -6.209510    0.443421    1.028996
 O   -6.846833   -0.041914   -0.134074
 C   -6.125330   -1.129425   -0.676550
 C   -4.711341   -0.712619   -1.049492
 N   -4.033378   -0.180402    0.128532
 C   -2.637267   -0.051183    0.061695
 C   -1.865629   -1.160482   -0.314267
 C   -0.484319   -1.091603   -0.332305
 C   -1.968238    1.132789    0.410884
 C   -0.584558    1.198116    0.371286
 C    0.178128    0.092431   -0.005701
 C    1.662430    0.128054   -0.039567
 N    2.347472   -0.946895    0.160569
 C    3.730199   -0.826432    0.164986
 C    4.507504   -1.977546    0.420733
 C    5.882738   -1.896405    0.434132
 C    6.536582   -0.675035    0.190606
 C    5.789404    0.456847   -0.066953
 C    4.393097    0.388866   -0.080732
 C    3.600210    1.589171   -0.368421
 O    4.034383    2.692106   -0.639966
 N    2.229395    1.361688   -0.301754
 H   -4.310147    1.194567    1.678443
 H   -4.828939    1.793702    0.081603
 H   -6.811053    1.281583    1.393724
 H   -6.192783   -0.336874    1.806076
 H   -6.673989   -1.462348   -1.563017
 H   -6.090891   -1.960269    0.045768
 H   -4.752984    0.035958   -1.860114
 H   -4.166135   -1.578387   -1.434207
 H   -2.358705   -2.097595   -0.556807
 H    0.098771   -1.965468   -0.609548
 H   -2.526386    2.018587    0.696240
 H   -0.100579    2.119957    0.685447
 H    3.984022   -2.911188    0.605843
 H    6.470762   -2.788969    0.635115
 H    7.621603   -0.628787    0.204597
 H    6.253629    1.419440   -0.265041
 H    1.644341    2.143909   -0.577720
