49 
5nu3_ligand_xtb.xyz
 O   40.091778    1.970393    9.715951
 C   41.412379    4.157597    8.304910
 C   44.189499    1.755409    9.059251
 C   37.673891    4.215927   12.187218
 C   38.821298    3.425342   12.825365
 C   36.354249    5.346144   14.879128
 C   39.154465    5.974466    9.797012
 C   38.612285    6.334345   11.106159
 N   38.713481    7.662626   11.440288
 C   38.206236    7.886785   12.655532
 C   37.720290    6.666806   13.149126
 C   37.977501    5.680144   12.149036
 C   37.092217    6.600517   14.468385
 C   38.208301    9.232206   13.272336
 N   39.310971    4.674861    9.500787
 O   39.450060    6.869447    8.996470
 O   37.137290    7.550103   15.228505
 C   39.904293    4.244226    8.249272
 C   42.150690    5.232089    7.829736
 C   43.550526    5.120432    7.684946
 C   44.194344    3.980914    8.051689
 C   43.493463    2.904696    8.635396
 C   42.080848    3.000606    8.787708
 C   41.437046    1.910218    9.440775
 C   42.147781    0.806420    9.843840
 C   43.528093    0.715105    9.643242
 O   41.611127    6.403545    7.448681
 H   39.832831    1.152343   10.157997
 H   45.258961    1.718866    8.916215
 H   36.761035    4.034764   12.750088
 H   37.495780    3.858221   11.170640
 H   38.579230    2.364987   12.856786
 H   39.747403    3.555381   12.268708
 H   38.998954    3.769222   13.841772
 H   35.913789    5.513374   15.859682
 H   35.562278    5.125108   14.167172
 H   37.033402    4.500421   14.937552
 H   39.118117    8.337062   10.806320
 H   38.512052    9.984222   12.546976
 H   37.220446    9.469972   13.661513
 H   38.889690    9.252594   14.122011
 H   39.250097    3.967912   10.213608
 H   39.605511    4.957964    7.476231
 H   39.484840    3.270396    7.999133
 H   44.076551    5.964643    7.267710
 H   45.262447    3.889615    7.920630
 H   41.626765   -0.004735   10.338021
 H   44.053528   -0.169873    9.967924
 H   40.743890    6.576177    7.891563
