27 
5nud_ligand_ani.xyz
 O    3.102608    2.072801   -0.514216
 O    4.895061    1.201258   -1.318043
 C   -0.238716    0.120762    0.080851
 C   -2.005994   -1.246948   -0.425685
 C   -2.944950   -0.272310   -0.125427
 C   -2.487641    0.971533    0.311188
 C   -1.128393    1.170174    0.404659
 C   -4.406311   -0.528979   -0.289002
 N    3.843642    1.110990   -0.710974
 C    3.480583   -0.196466   -0.182410
 C    4.506041   -1.133321   -0.098231
 C    4.233463   -2.370095    0.462415
 C    2.934799   -2.611306    0.892391
 N    1.936534   -1.737750    0.777306
 C    2.170346   -0.544409    0.242420
 N    1.123492    0.354752    0.136820
 N   -0.697934   -1.058669   -0.324233
Cl   -0.532265    2.713968    0.929757
 F   -4.665333   -1.834908   -0.483751
 F   -5.097199   -0.134176    0.795577
 F   -4.918079    0.138468   -1.340457
 H   -2.331107   -2.228583   -0.758984
 H   -3.179163    1.767228    0.565176
 H    5.491726   -0.867008   -0.461677
 H    5.007726   -3.123279    0.562704
 H    2.674470   -3.565407    1.344652
 H    1.409497    1.325586    0.066557
