27 
5nud_ligand_dft.xyz
 O    3.167432    2.001289   -0.624192
 O    5.087823    1.121579   -1.058289
 C   -0.227519    0.188461   -0.033028
 C   -1.985622   -1.186014   -0.542520
 C   -2.928222   -0.229438   -0.184633
 C   -2.473533    1.009760    0.257469
 C   -1.111553    1.221752    0.338867
 C   -4.398712   -0.528984   -0.227961
 N    3.944003    1.045295   -0.642617
 C    3.485362   -0.236957   -0.134484
 C    4.448680   -1.225158    0.047757
 C    4.066706   -2.458160    0.538360
 C    2.716852   -2.634832    0.842481
 N    1.786128   -1.707162    0.676800
 C    2.129355   -0.515997    0.177545
 N    1.140292    0.420426    0.013505
 N   -0.674652   -0.979184   -0.483537
Cl   -0.503555    2.755692    0.893591
 F   -4.683912   -1.479078   -1.131239
 F   -4.850079   -0.962944    0.961204
 F   -5.112393    0.564917   -0.542959
 H   -2.298123   -2.157155   -0.915220
 H   -3.166049    1.795679    0.537554
 H    5.477535   -0.997501   -0.202712
 H    4.785967   -3.252594    0.696255
 H    2.366168   -3.577107    1.257760
 H    1.469194    1.370675   -0.116070
