36 
5nvf_ligand_ani.xyz
 C   -5.076089    0.744535    0.880290
 C   -6.458725    0.632910    0.854953
 C   -7.044054   -0.287776   -0.005734
 C   -6.201582   -1.068170   -0.789772
 N   -4.873185   -0.984144   -0.763317
 C   -4.310741   -0.070901    0.039262
 C   -2.825476    0.011939    0.003383
 C   -2.078011   -1.084867   -0.436932
 C   -0.694773   -1.040394   -0.446455
 C   -2.147880    1.166320    0.408324
 C   -0.764479    1.218749    0.379740
 C   -0.021779    0.114973   -0.047270
 C    1.464895    0.134153   -0.063995
 N    2.139200   -0.943336    0.154745
 C    3.522724   -0.831357    0.176489
 C    4.288950   -1.983225    0.460289
 C    5.664243   -1.909888    0.493947
 C    6.329042   -0.696088    0.242253
 C    5.592707    0.435995   -0.044391
 C    4.196387    0.376332   -0.077874
 C    3.415128    1.577922   -0.393045
 O    3.860202    2.672824   -0.679249
 N    2.042265    1.361576   -0.332659
 H   -4.596337    1.442158    1.560593
 H   -7.070557    1.261540    1.497100
 H   -8.121248   -0.407360   -0.065652
 H   -6.614516   -1.812120   -1.469294
 H   -2.601051   -1.976312   -0.766597
 H   -0.121122   -1.905563   -0.767421
 H   -2.698139    2.048412    0.725950
 H   -0.262572    2.114800    0.735233
 H    3.757395   -2.911079    0.651605
 H    6.243800   -2.802707    0.717159
 H    7.413984   -0.655818    0.273010
 H    6.066022    1.392493   -0.250110
 H    1.461841    2.143328   -0.619749
