42 
5nvh_ligand_ani.xyz
 C   -4.783723    0.834353    0.838806
 C   -6.197477    0.351224    1.141729
 C   -6.915498   -0.057870   -0.142063
 C   -6.079174   -1.096680   -0.886729
 C   -4.672232   -0.566991   -1.133524
 N   -4.033270   -0.189569    0.125811
 C   -2.632631   -0.066440    0.094795
 C   -1.960883    1.102862    0.482514
 C   -0.576625    1.162377    0.451084
 C   -1.864861   -1.170199   -0.304135
 C   -0.482513   -1.110831   -0.308543
 C    0.182653    0.063535    0.046762
 C    1.667296    0.108360    0.000197
 N    2.366323   -0.956272    0.205177
 C    3.748225   -0.821347    0.180718
 C    4.543816   -1.959876    0.437392
 C    5.918188   -1.864546    0.416015
 C    6.553651   -0.641140    0.137026
 C    5.788580    0.478691   -0.120182
 C    4.393299    0.396294   -0.099318
 C    3.582801    1.584521   -0.387723
 O    4.000022    2.686908   -0.687036
 N    2.216683    1.345265   -0.285346
 H   -4.265468    1.059968    1.776167
 H   -4.840452    1.773855    0.252563
 H   -6.745766    1.141926    1.668040
 H   -6.136854   -0.508204    1.821497
 H   -7.056014    0.826835   -0.781156
 H   -7.913935   -0.450272    0.080392
 H   -6.543511   -1.366626   -1.843012
 H   -6.013441   -2.014352   -0.288234
 H   -4.714914    0.300306   -1.820195
 H   -4.063983   -1.326625   -1.630829
 H   -2.520922    1.982303    0.785111
 H   -0.087545    2.072241    0.790938
 H   -2.369571   -2.092100   -0.581221
 H    0.097036   -1.980523   -0.605982
 H    4.035823   -2.896140    0.649971
 H    6.520409   -2.747806    0.616428
 H    7.638292   -0.583733    0.123253
 H    6.237450    1.442913   -0.344670
 H    1.617694    2.117012   -0.561182
