42 
5nvh_ligand_xtb.xyz
 C   -4.953971    1.169137    0.146936
 C   -5.439220    0.427519    1.398411
 C   -6.180118   -0.847323    1.002780
 C   -5.291770   -1.706986    0.106324
 C   -4.814251   -0.866338   -1.080903
 N   -4.096752    0.311742   -0.644496
 C   -2.734378    0.301753   -0.472777
 C   -2.034845    1.491923   -0.211152
 C   -0.664652    1.518397   -0.100311
 C   -1.961983   -0.863920   -0.614889
 C   -0.593537   -0.834118   -0.498767
 C    0.094812    0.354841   -0.242061
 C    1.546738    0.314257   -0.126907
 N    2.136963   -0.833380   -0.057246
 C    3.496304   -0.872130    0.057716
 C    4.131306   -2.119257    0.135653
 C    5.498499   -2.191846    0.260884
 C    6.273542   -1.032940    0.311902
 C    5.670684    0.201640    0.233980
 C    4.284530    0.294977    0.106625
 C    3.624278    1.591652    0.014019
 O    4.160326    2.681720    0.025883
 N    2.245574    1.494191   -0.101000
 H   -4.429760    2.076426    0.438350
 H   -5.814238    1.454419   -0.468844
 H   -6.090781    1.080462    1.980974
 H   -4.572535    0.172388    2.012859
 H   -7.091970   -0.582218    0.461635
 H   -6.470233   -1.405543    1.894650
 H   -5.841124   -2.578322   -0.252866
 H   -4.427477   -2.055797    0.675007
 H   -5.688170   -0.519524   -1.645359
 H   -4.193875   -1.448200   -1.761828
 H   -2.569501    2.423778   -0.114144
 H   -0.196990    2.469360    0.113300
 H   -2.434542   -1.814916   -0.799735
 H   -0.017467   -1.740222   -0.596540
 H    3.519989   -3.007056    0.096008
 H    5.981128   -3.156728    0.321276
 H    7.345967   -1.108259    0.412131
 H    6.243183    1.116494    0.268724
 H    1.753494    2.374423   -0.188242
