66 
5nvv_ligand_ani.xyz
 C   -6.043053   -1.440851    0.926475
 C   -5.537959   -0.042051    0.744691
 N   -6.297695    1.000298    1.225099
 C   -5.740354    2.140032    0.964988
 S   -4.255047    2.049870    0.106887
 C   -4.373097    0.323039    0.120693
 C   -3.338268   -0.544830   -0.465146
 C   -2.902042   -1.691924    0.210138
 C   -1.935412   -2.529097   -0.333412
 C   -2.727980   -0.244376   -1.694543
 C   -1.761922   -1.081251   -2.233609
 C   -1.363562   -2.248218   -1.575756
 C   -0.276502   -3.125225   -2.165347
 N    1.050370   -2.603957   -1.880465
 C    1.660656   -2.946522   -0.710891
 O    1.270870   -3.852073    0.013369
 C    2.903941   -2.099080   -0.365661
 C    3.806160   -2.787881    0.655105
 C    3.285182   -2.295448    2.008013
 O    4.238072   -2.306136    3.047890
 C    2.877148   -0.850412    1.734825
 N    2.499525   -0.856158    0.318669
 C    1.994165    0.187878   -0.391473
 O    1.793536    0.100658   -1.603353
 C    1.704223    1.499994    0.366536
 C    0.190634    1.839744    0.482923
 C    0.042412    3.044760    1.425085
 C   -0.538448    0.633819    1.090528
 C   -0.436462    2.189031   -0.875566
 N    2.470704    2.554993   -0.267051
 C    3.771362    2.740289    0.101116
 O    4.276200    2.250613    1.099478
 C    4.560308    3.671562   -0.822594
 O    4.054252    3.707525   -2.146033
 H   -7.134599   -1.441763    0.911183
 H   -5.729852   -1.847946    1.896017
 H   -5.668876   -2.104280    0.141301
 H   -6.164041    3.095262    1.251043
 H   -3.315942   -1.928835    1.186735
 H   -1.610477   -3.403264    0.224816
 H   -3.017672    0.652997   -2.235995
 H   -1.297500   -0.809863   -3.180272
 H   -0.328483   -4.135433   -1.751080
 H   -0.388843   -3.199532   -3.253485
 H    1.263556   -1.669104   -2.221111
 H    3.428923   -1.840707   -1.293371
 H    3.769095   -3.875779    0.563675
 H    4.842961   -2.454865    0.530434
 H    2.390687   -2.874323    2.276677
 H    4.419961   -3.225977    3.275146
 H    2.035886   -0.554963    2.373229
 H    3.710609   -0.160547    1.920324
 H    2.101830    1.427868    1.379560
 H    0.420045    2.809920    2.427657
 H   -1.013666    3.322421    1.522978
 H    0.593779    3.910228    1.045473
 H   -0.094271    0.341870    2.050594
 H   -1.590434    0.874667    1.275856
 H   -0.514993   -0.233160    0.422141
 H   -0.249265    1.399769   -1.610510
 H   -1.522514    2.302893   -0.758644
 H   -0.047713    3.134827   -1.271074
 H    2.257711    2.761106   -1.234212
 H    4.482446    4.691804   -0.432797
 H    5.614390    3.376842   -0.775417
 H    4.387461    2.931122   -2.614328
