69 
5nvw_ligand_ani.xyz
 C   -6.031915   -2.618348   -1.322635
 C   -5.867537   -3.793938   -0.426621
 C   -4.647465   -3.141334   -1.023900
 C   -3.822302   -2.311399   -0.094015
 O   -4.317712   -1.768949    0.884681
 N   -2.486254   -2.215419   -0.400782
 C   -1.665206   -1.239425    0.296510
 C   -0.189063   -1.709462    0.455091
 C    0.446962   -2.091940   -0.890139
 C   -0.181595   -2.937709    1.378469
 C    0.630506   -0.584230    1.102625
 C   -1.810810    0.114462   -0.429215
 O   -1.571781    0.212505   -1.633388
 N   -2.233284    1.183087    0.298038
 C   -2.652290    1.176364    1.702154
 C   -2.932477    2.645616    2.005794
 O   -3.916092    2.716059    3.014384
 C   -3.358185    3.222441    0.652871
 C   -2.492050    2.477705   -0.359466
 C   -1.160499    3.208005   -0.637536
 O   -0.708857    4.049079    0.127042
 N   -0.547107    2.839263   -1.797309
 C    0.830274    3.240107   -2.030437
 C    1.813127    2.227740   -1.475584
 C    2.414540    2.396668   -0.227215
 C    3.288089    1.440692    0.277390
 C    2.082504    1.050891   -2.180163
 C    2.951202    0.093330   -1.678499
 C    3.593282    0.278702   -0.443025
 C    4.538973   -0.711799    0.097887
 S    4.212608   -2.411744    0.117646
 C    5.731400   -2.675160    0.875936
 N    6.435859   -1.609059    1.086806
 C    5.774403   -0.485574    0.645802
 C    6.443261    0.847416    0.784576
 H   -6.421730   -2.770435   -2.324443
 H   -6.288908   -1.672653   -0.855626
 H   -6.142953   -4.776642   -0.797124
 H   -6.013947   -3.630158    0.636462
 H   -4.114932   -3.670212   -1.811030
 H   -2.238640   -2.362165   -1.370682
 H   -2.090497   -1.160681    1.297112
 H   -0.016644   -2.986777   -1.320426
 H    1.513114   -2.310213   -0.741405
 H    0.361182   -1.273448   -1.612029
 H   -0.800789   -3.740288    0.966676
 H    0.840018   -3.315991    1.501275
 H   -0.565354   -2.684448    2.374308
 H    1.648119   -0.927506    1.318524
 H    0.185026   -0.258124    2.051266
 H    0.715384    0.286492    0.443947
 H   -1.862745    0.786512    2.355775
 H   -3.552632    0.565858    1.845930
 H   -1.997943    3.130301    2.320636
 H   -4.022646    3.642354    3.262157
 H   -3.214438    4.303758    0.595017
 H   -4.417164    2.994178    0.485838
 H   -3.006680    2.298540   -1.311293
 H   -0.841862    1.942444   -2.177012
 H    0.973832    3.363608   -3.110545
 H    0.971570    4.215288   -1.557513
 H    2.185676    3.278751    0.365761
 H    3.736297    1.596369    1.255540
 H    1.593434    0.868976   -3.135671
 H    3.139254   -0.809357   -2.255137
 H    6.057411   -3.672920    1.144698
 H    6.250645    1.279960    1.774031
 H    6.082083    1.552075    0.030060
 H    7.524006    0.730861    0.683655
