69 
5nvx_ligand_ani.xyz
 C   -6.185948   -2.175468   -0.818780
 C   -5.892525   -3.463273   -0.100193
 C   -4.784668   -2.666533   -0.698845
 F   -4.162082   -3.149883   -1.830784
 C   -3.851953   -1.929835    0.223013
 O   -4.275445   -1.398612    1.238572
 N   -2.544094   -1.936672   -0.160089
 C   -1.614449   -1.007629    0.454503
 C   -0.176762   -1.593558    0.557969
 C   -0.220795   -2.791714    1.519208
 C    0.759410   -0.519745    1.128710
 C    0.358047   -2.069823   -0.801013
 C   -1.690531    0.316330   -0.332883
 O   -1.523782    0.330208   -1.553496
 N   -1.974955    1.452878    0.356101
 C   -2.294518    1.555041    1.782139
 C   -2.428823    3.056857    2.018905
 O   -3.326311    3.264315    3.087363
 C   -2.904839    3.595322    0.667146
 C   -2.175356    2.729382   -0.356472
 C   -0.814518    3.333780   -0.763435
 O   -0.254176    4.184958   -0.086363
 N   -0.305167    2.846841   -1.929681
 C    1.083136    3.119703   -2.264302
 C    2.019129    2.092669   -1.658681
 C    2.201852    0.853707   -2.278807
 C    3.020294   -0.117433   -1.720675
 C    2.652787    2.313718   -0.434493
 C    3.471614    1.342460    0.128129
 C    3.693506    0.115453   -0.509833
 C    4.574518   -0.896284    0.095757
 S    4.159102   -2.575352    0.156276
 C    5.624938   -2.888316    0.995711
 N    6.376574   -1.853435    1.199203
 C    5.798052   -0.714599    0.686560
 C    6.539651    0.582191    0.801599
 H   -6.441707   -1.303612   -0.224925
 H   -6.639372   -2.245633   -1.801928
 H   -6.151151   -4.386589   -0.608211
 H   -5.951586   -3.473656    0.983846
 H   -2.385148   -2.127759   -1.139793
 H   -1.977619   -0.849811    1.471102
 H    0.774435   -3.242808    1.610092
 H   -0.539875   -2.482763    2.522092
 H   -0.916072   -3.555732    1.158166
 H    0.392574   -0.137652    2.089775
 H    1.757334   -0.935549    1.302681
 H    0.874719    0.325470    0.441981
 H    1.405808   -2.380648   -0.692258
 H    0.313301   -1.269698   -1.546436
 H   -0.204181   -2.931312   -1.179595
 H   -3.233736    1.038270    2.019559
 H   -1.499083    1.129244    2.405204
 H   -1.437271    3.475105    2.240246
 H   -3.334614    4.207582    3.289803
 H   -2.680169    4.656322    0.536883
 H   -3.987886    3.447613    0.586498
 H   -2.768393    2.544465   -1.260412
 H   -0.689326    1.953834   -2.230607
 H    1.318649    4.121601   -1.895966
 H    1.176408    3.129919   -3.356677
 H    1.680994    0.633568   -3.209160
 H    3.142207   -1.069564   -2.231508
 H    2.492736    3.249415    0.094683
 H    3.937741    1.538179    1.090206
 H    5.882906   -3.890671    1.316008
 H    7.614621    0.395951    0.763210
 H    6.262614    1.271553   -0.001291
 H    6.326967    1.071284    1.760391
