76 
5nw0_ligand_dft.xyz
 C    3.654609   -1.797481    3.254905
 C    3.880759   -2.252191    1.833159
 O    3.232735   -3.161054    1.326791
 N    4.834758   -1.557951    1.142029
 C    4.981905   -1.654946   -0.286322
 C    5.545592   -2.923307   -0.863323
 C    6.370002   -1.665383   -0.845251
 C    3.900020   -0.889090   -1.029633
 O    4.107835    0.172644   -1.601808
 N    2.667318   -1.449223   -0.922517
 C    1.510048   -0.602022   -1.120372
 C    0.179156   -1.396187   -0.993814
 C   -0.987955   -0.454042   -1.319107
 C   -0.027726   -1.979572    0.412450
 C    0.199800   -2.535056   -2.024578
 C    1.608128    0.557142   -0.114116
 O    1.890664    0.329270    1.069397
 N    1.377698    1.811205   -0.553710
 C    1.271930    2.227223   -1.955129
 C    1.121415    3.745357   -1.865287
 O    1.593431    4.313040   -3.064044
 C    1.930152    4.100351   -0.613283
 C    1.605267    2.960387    0.343815
 C    0.327613    3.227228    1.162554
 O   -0.419834    4.167120    0.922501
 N    0.116436    2.318461    2.144697
 C   -1.151392    2.251258    2.853383
 C   -2.169157    1.400695    2.123602
 C   -2.364784    0.063885    2.467533
 C   -3.251636   -0.733738    1.754757
 C   -2.886401    1.927266    1.045961
 C   -3.766646    1.130453    0.325938
 C   -3.965857   -0.212427    0.671674
 C   -4.886072   -1.059043   -0.105233
 S   -4.438312   -2.669342   -0.589154
 C   -5.975582   -2.832789   -1.362882
 N   -6.752099   -1.799736   -1.276489
 C   -6.149407   -0.783873   -0.564189
 C   -6.923423    0.479643   -0.335336
 H    2.874260   -1.029504    3.227871
 H    3.296948   -2.640860    3.846697
 H    4.551389   -1.373891    3.716053
 H    5.168957   -0.700068    1.559191
 H    5.133498   -3.264942   -1.807303
 H    5.788235   -3.709676   -0.157334
 H    6.516819   -1.121006   -1.771983
 H    7.190496   -1.608754   -0.136923
 H    2.592790   -2.235965   -0.282454
 H    1.565418   -0.208028   -2.138072
 H   -1.050234    0.382340   -0.614182
 H   -1.935502   -0.998306   -1.261551
 H   -0.903622   -0.050658   -2.335257
 H   -0.107648   -1.189543    1.162654
 H   -0.961429   -2.553621    0.426894
 H    0.781626   -2.650396    0.718468
 H    0.984907   -3.265729   -1.808425
 H    0.366028   -2.148581   -3.036918
 H   -0.762391   -3.059077   -2.016257
 H    0.417046    1.762242   -2.448388
 H    2.192746    1.978934   -2.495339
 H    0.067764    4.000910   -1.690622
 H    1.362313    5.248708   -3.058434
 H    1.661457    5.071529   -0.193973
 H    2.994653    4.086663   -0.868875
 H    2.428237    2.714349    1.020587
 H    0.714355    1.494908    2.127662
 H   -0.962140    1.845954    3.851969
 H   -1.515443    3.274995    2.965474
 H   -1.817850   -0.363706    3.304577
 H   -3.396817   -1.770312    2.045889
 H   -2.725865    2.962676    0.760053
 H   -4.288132    1.544064   -0.531699
 H   -6.246156   -3.748256   -1.875674
 H   -7.973196    0.236557   -0.151213
 H   -6.532747    1.039223    0.518012
 H   -6.887364    1.130413   -1.216754
