72 
5nw1_ligand_ani.xyz
 C   -6.058747   -1.554950   -1.214325
 C   -7.149784   -2.562663   -0.797711
 C   -6.139186   -3.197016    0.180655
 C   -5.003385   -2.525458   -0.619844
 C   -3.907914   -1.873697    0.187008
 O   -4.149955   -1.306041    1.242599
 N   -2.641466   -1.953591   -0.341468
 C   -1.599297   -1.110572    0.219941
 C   -0.188240   -1.759145    0.119064
 C   -0.200736   -3.056372    0.941223
 C    0.202148   -2.089035   -1.330292
 C    0.850688   -0.800620    0.712901
 C   -1.697143    0.267389   -0.465430
 O   -1.662177    0.359303   -1.693268
 N   -1.844456    1.366396    0.319198
 C   -2.051649    1.382905    1.770225
 C   -2.133772    2.869519    2.110331
 O   -2.964389    3.026561    3.239608
 C   -2.669559    3.511508    0.826824
 C   -2.029919    2.695676   -0.292305
 C   -0.668760    3.277474   -0.732301
 O   -0.082862    4.124721   -0.071056
 N   -0.184812    2.775485   -1.900455
 C    1.194511    3.035157   -2.282481
 C    2.165872    2.049085   -1.661127
 C    2.438085    0.822548   -2.275941
 C    3.292570   -0.099680   -1.688290
 C    2.772082    2.314746   -0.430910
 C    3.628213    1.394986    0.157883
 C    3.904023    0.165375   -0.450835
 C    4.809295   -0.811955    0.176222
 S    5.851496   -1.795710   -0.793739
 C    6.476738   -2.508384    0.639275
 N    5.952406   -2.084476    1.746089
 C    4.992847   -1.126091    1.500625
 C    4.253201   -0.554020    2.674295
 H   -5.965963   -1.293535   -2.272193
 H   -6.099864   -0.640007   -0.616071
 H   -8.076123   -2.161470   -0.378700
 H   -7.401775   -3.243808   -1.616483
 H   -6.200845   -2.748065    1.174758
 H   -6.116621   -4.285980    0.273876
 H   -4.592364   -3.196063   -1.381967
 H   -2.578827   -2.083333   -1.343969
 H   -1.840307   -1.011977    1.278760
 H    0.781719   -3.539638    0.901014
 H   -0.946354   -3.758483    0.557362
 H   -0.429092   -2.853781    1.994995
 H   -0.443318   -2.863280   -1.759927
 H    1.233134   -2.465215   -1.357117
 H    0.151983   -1.198802   -1.964941
 H    0.943203    0.118371    0.124086
 H    1.838044   -1.276636    0.729394
 H    0.594568   -0.523415    1.743757
 H   -2.978550    0.863551    2.043827
 H   -1.218569    0.904405    2.299576
 H   -1.120645    3.249138    2.302688
 H   -2.938757    3.954841    3.501357
 H   -2.417485    4.571586    0.752566
 H   -3.759506    3.399621    0.801773
 H   -2.675744    2.590259   -1.172809
 H   -0.623900    1.923331   -2.238538
 H    1.256875    2.998690   -3.376193
 H    1.434205    4.054237   -1.966414
 H    1.967319    0.580485   -3.227478
 H    3.488673   -1.045791   -2.185807
 H    2.559194    3.248118    0.082466
 H    4.102567    1.648195    1.101481
 H    7.253815   -3.262663    0.593483
 H    4.290819   -1.258644    3.506893
 H    3.207816   -0.350927    2.423496
 H    4.707007    0.384734    3.016129
