72 
5nw1_ligand_xtb.xyz
 C   -4.854850   -2.488414   -1.836966
 C   -6.368111   -2.496548   -1.569725
 C   -6.111859   -2.934442   -0.119382
 C   -4.606084   -3.022000   -0.408332
 C   -3.736949   -2.118146    0.440904
 O   -4.143884   -1.461106    1.376980
 N   -2.433573   -2.125045    0.060506
 C   -1.512307   -1.149674    0.609617
 C   -0.063405   -1.687008    0.675278
 C   -0.020720   -2.834713    1.687158
 C    0.415656   -2.189129   -0.688344
 C    0.852145   -0.555723    1.148922
 C   -1.647920    0.109327   -0.248040
 O   -1.495259    0.055660   -1.468617
 N   -2.004857    1.246003    0.358654
 C   -2.281557    1.444232    1.768995
 C   -2.611256    2.936908    1.892737
 O   -3.499120    3.126466    2.962279
 C   -3.194838    3.272382    0.513253
 C   -2.334350    2.438747   -0.423637
 C   -1.038015    3.183699   -0.813105
 O   -0.691573    4.219913   -0.283116
 N   -0.373733    2.569438   -1.802401
 C    0.940861    2.997890   -2.242721
 C    2.000621    2.092310   -1.673217
 C    2.236566    0.845992   -2.242223
 C    3.160710   -0.014838   -1.688661
 C    2.717798    2.458392   -0.542196
 C    3.649487    1.602729    0.013641
 C    3.873513    0.342992   -0.542592
 C    4.825917   -0.586605    0.037250
 S    5.680002   -1.717668   -0.979909
 C    6.461126   -2.329957    0.438502
 N    6.115374   -1.765761    1.534091
 C    5.199879   -0.781022    1.347469
 C    4.688087   -0.073438    2.555996
 H   -4.524303   -3.149039   -2.636508
 H   -4.439092   -1.496315   -2.008488
 H   -6.856689   -1.530999   -1.677581
 H   -6.910829   -3.231347   -2.160716
 H   -6.336157   -2.172854    0.624795
 H   -6.581114   -3.869790    0.175590
 H   -4.197963   -4.033993   -0.383193
 H   -2.198307   -2.490059   -0.849645
 H   -1.862793   -0.951430    1.624125
 H    0.978158   -3.262666    1.724546
 H   -0.723201   -3.615840    1.407033
 H   -0.282022   -2.482324    2.682264
 H   -0.077926   -3.120293   -0.957697
 H    1.486222   -2.376029   -0.653019
 H    0.220674   -1.448852   -1.459053
 H    0.848554    0.271906    0.442839
 H    1.872598   -0.921402    1.234570
 H    0.539773   -0.185611    2.123201
 H   -3.157782    0.864605    2.082112
 H   -1.424556    1.172745    2.386480
 H   -1.689302    3.516332    2.044072
 H   -3.715679    4.062662    3.025073
 H   -3.119084    4.332567    0.278948
 H   -4.236852    2.953276    0.475125
 H   -2.853552    2.135321   -1.339012
 H   -0.686889    1.639932   -2.075232
 H    0.964261    2.976752   -3.336478
 H    1.077315    4.023138   -1.892080
 H    1.690156    0.549080   -3.125696
 H    3.334376   -0.980867   -2.140280
 H    2.545775    3.426546   -0.095678
 H    4.223367    1.924146    0.867225
 H    7.173501   -3.127626    0.371664
 H    4.748376   -0.750659    3.404390
 H    3.660154    0.251688    2.416836
 H    5.306139    0.796415    2.778361
