70 
5nw2_ligand_xtb.xyz
 C   -6.161188   -2.594933   -0.322109
 O   -6.204556   -2.178321   -1.690563
 C   -4.809512   -2.406950   -1.869541
 C   -4.663369   -2.897601   -0.419193
 C   -3.770837   -2.042038    0.461717
 O   -4.179079   -1.382040    1.393395
 N   -2.462684   -2.111341    0.116625
 C   -1.520529   -1.158262    0.674321
 C   -0.080105   -1.719307    0.713099
 C    0.854048   -0.611094    1.203614
 C   -0.042310   -2.890692    1.697377
 C    0.377816   -2.197617   -0.666146
 C   -1.655631    0.111476   -0.170613
 O   -1.548840    0.056999   -1.395848
 N   -1.967063    1.251603    0.452212
 C   -2.187875    1.449143    1.872128
 C   -2.478152    2.948360    2.013155
 O   -3.316466    3.153150    3.119064
 C   -3.110497    3.299888    0.659508
 C   -2.305720    2.452625   -0.314085
 C   -1.010609    3.171616   -0.752252
 O   -0.609394    4.185041   -0.217203
 N   -0.412697    2.564019   -1.787710
 C    0.898669    2.960603   -2.267610
 C    1.947716    2.036000   -1.708990
 C    2.627447    2.361356   -0.542280
 C    3.534860    1.481130    0.014741
 C    2.182960    0.801958   -2.303679
 C    3.084015   -0.083609   -1.749452
 C    3.776937    0.245414   -0.584720
 C    4.707280   -0.702951    0.003264
 S    4.346417   -2.408523    0.013907
 C    5.854409   -2.671047    0.827085
 N    6.539840   -1.614571    1.049950
 C    5.925209   -0.489863    0.602068
 C    6.629189    0.814545    0.754156
 H   -6.815211   -3.449483   -0.134939
 H   -6.401459   -1.780290    0.366467
 H   -4.269677   -1.483332   -2.105386
 H   -4.616354   -3.152421   -2.647071
 H   -4.390969   -3.948359   -0.316289
 H   -2.218717   -2.487569   -0.786918
 H   -1.856649   -0.967640    1.695018
 H    0.852970    0.232228    0.516689
 H    0.556529   -0.260370    2.189304
 H    1.870830   -0.989009    1.272940
 H    0.951844   -3.330409    1.711629
 H   -0.287517   -2.558678    2.703427
 H   -0.756687   -3.657225    1.407342
 H   -0.128132   -3.117912   -0.950068
 H    1.446270   -2.397899   -0.645145
 H    0.184163   -1.439618   -1.419747
 H   -1.316355    1.154030    2.457215
 H   -3.067262    0.890847    2.213518
 H   -1.537969    3.506429    2.127760
 H   -3.514233    4.092908    3.190462
 H   -4.159221    3.001416    0.662283
 H   -3.023598    4.359089    0.424995
 H   -2.868185    2.161874   -1.207566
 H   -0.755760    1.644061   -2.055580
 H    1.065928    3.986113   -1.931275
 H    0.893045    2.926359   -3.360702
 H    2.431291    3.308173   -0.061413
 H    4.033365    1.735946    0.936519
 H    1.653018    0.533284   -3.205988
 H    3.261457   -1.040074   -2.219481
 H    6.160834   -3.659130    1.105958
 H    6.432210    1.241407    1.737468
 H    6.306873    1.519464   -0.008069
 H    7.700243    0.646665    0.672442
