29 
5nwc_ligand_ani.xyz
 N   -0.124492    1.421363    0.225663
 C   -1.484874    1.696842    0.343540
 O   -1.867770    2.812585    0.638488
 C   -2.329532    0.528119    0.070185
 C   -3.722625    0.644931    0.090587
 C   -4.513379   -0.458177   -0.162516
 C   -3.908068   -1.696470   -0.436859
 C   -2.535047   -1.825904   -0.454273
 C   -1.715347   -0.706160   -0.199584
 N   -0.338014   -0.875989   -0.202140
 C    0.405291    0.170487   -0.031730
 C    1.888785    0.111406   -0.104353
 C    2.606297    1.181000   -0.648420
 C    3.990822    1.176865   -0.724591
 C    4.688353    0.077470   -0.231564
 C    4.001760   -1.001447    0.300684
 C    2.598698   -1.019225    0.359818
 N    1.966319   -2.105473    0.929841
 H    0.492159    2.184902    0.485512
 H   -4.148748    1.620271    0.310346
 H   -5.596333   -0.374967   -0.148852
 H   -4.530052   -2.565781   -0.635846
 H   -2.054429   -2.777437   -0.661420
 H    2.057609    2.028175   -1.053746
 H    4.519506    2.026144   -1.148077
 H    5.774195    0.055039   -0.267414
 H    4.551215   -1.859788    0.684281
 H    1.003427   -2.247657    0.652428
 H    2.520116   -2.947317    0.975783
