57 
5nwz_ligand_ani.xyz
 C    3.494817  -11.155564   22.944502
 C    2.282804  -11.944958   23.447044
 C    2.740168  -13.158991   24.232088
 C    3.771825  -15.080396   26.277730
 C    1.533416  -12.686878   28.216323
 C   -0.350278  -12.057953   29.646469
 C   -1.771887  -10.430810   30.118434
 C   -2.553960   -9.149757   30.179693
 C   -2.145220   -8.111740   29.129683
 C   -2.984322   -6.858791   29.204922
 C   -2.695610   -5.883854   30.153368
 C   -3.487527   -4.738511   30.248726
 C   -3.870153   -2.664664   31.352419
 C   -4.585222   -4.556701   29.403891
 C   -4.873401   -5.547364   28.462582
 C   -6.757985   -4.351854   27.635550
 C   -4.078650   -6.691652   28.364742
 O    3.201600  -14.132018   23.659481
 N    2.624724  -13.036695   25.592191
 C    2.952733  -13.988034   26.567913
 C    2.454281  -13.815774   27.877883
 C    2.852565  -14.711522   28.872100
 C    3.692739  -15.778925   28.588956
 C    4.136249  -15.965311   27.283550
 O    1.545409  -11.603159   27.643600
 N    0.634457  -12.955163   29.220326
 N   -1.214330  -12.408844   30.629890
 N   -2.088474  -11.425922   30.936535
 O   -3.112441   -3.845619   31.204341
 O   -5.915461   -5.482935   27.590529
 C   -0.678934  -10.772311   29.281795
 H    3.180361  -10.309932   22.325439
 H    4.084432  -10.766286   23.781380
 H    4.142170  -11.803600   22.345725
 H    1.619140  -11.311793   24.047656
 H    1.708061  -12.320248   22.594727
 H    4.117349  -15.221867   25.262131
 H   -2.441122   -8.721461   31.183187
 H   -3.617727   -9.386550   30.067878
 H   -2.236430   -8.556094   28.131709
 H   -1.089098   -7.854175   29.274786
 H   -1.858247   -5.987896   30.837480
 H   -3.397511   -2.105035   32.160950
 H   -3.856474   -2.057970   30.437492
 H   -4.910863   -2.883422   31.625217
 H   -5.200331   -3.667148   29.478437
 H   -7.512330   -4.509498   26.863291
 H   -7.254007   -4.255526   28.610260
 H   -6.206527   -3.427757   27.418056
 H   -4.340949   -7.433811   27.616798
 H    2.222181  -12.187880   25.980241
 H    2.531267  -14.549260   29.898469
 H    3.984726  -16.469195   29.375727
 H    4.780524  -16.805871   27.038781
 H    0.546372  -13.918472   29.509583
 H   -1.244142  -13.257539   31.172074
 H   -0.175754  -10.199046   28.519270
