39 
5nxp_ligand_ani.xyz
 C    1.522587    1.223852   -0.786050
 C    2.861386    0.856069   -0.798628
 C    3.303236   -0.200143   -0.009045
 S    5.017603   -0.641032   -0.016576
 O    5.113170   -2.061199    0.281654
 O    5.621784   -0.054093   -1.202208
 N    5.636545    0.170921    1.307862
 C    2.417050   -0.913265    0.792644
 C    1.080280   -0.545632    0.809947
 C    0.628956    0.522050    0.025667
 N   -0.740055    0.842325    0.090764
 C   -1.396270    1.864427   -0.523161
 O   -0.893033    2.676977   -1.281960
 C   -2.896785    1.971070   -0.208144
 N   -3.436579    0.983078    0.699551
 C   -3.781492    1.439889    2.029335
 C   -4.066857   -0.154827    0.185143
 C   -5.060896   -0.835493    0.904132
 C   -5.653027   -1.981435    0.385033
 C   -5.272417   -2.483635   -0.853148
 C   -4.283156   -1.819565   -1.570974
 C   -3.686038   -0.670880   -1.065747
 H    1.162185    2.043652   -1.392672
 H    3.569918    1.386052   -1.428851
 H    6.033670   -0.491613    1.965896
 H    6.311245    0.867572    1.009861
 H    2.769490   -1.751340    1.386172
 H    0.381932   -1.094719    1.436577
 H   -1.296771    0.267900    0.705853
 H   -3.428781    1.967652   -1.167635
 H   -3.045285    2.972691    0.213176
 H   -3.078441    2.224254    2.323111
 H   -4.804525    1.845107    2.095445
 H   -3.683914    0.621309    2.750322
 H   -5.384037   -0.467094    1.871148
 H   -6.422216   -2.486858    0.965405
 H   -5.738538   -3.379886   -1.252910
 H   -3.973887   -2.193117   -2.544277
 H   -2.907783   -0.177694   -1.640552
