36 
5nxv_ligand_dft.xyz
 C   -3.435592    1.250554   -0.280700
 C    2.206588    2.242375    1.174139
 C   -2.858228   -1.025365    0.305761
 C   -1.577369   -0.611702    0.624542
 C   -1.218494    0.737565    0.496831
 C    0.734191    2.271703    0.722423
 N   -6.160535   -0.780051    0.953305
 C    3.755666    1.055315   -0.429979
 N    2.722165   -0.094309    1.209515
 N    0.102120    1.071427    0.843077
Cl    5.125456   -0.918092   -1.788729
 C    4.105973   -0.277336   -0.570634
 C    3.421714   -0.934244    0.468301
 N    3.373459   -2.345819    0.788581
 O    2.456848   -2.725742    1.496828
 O    4.253665   -3.044825    0.315267
 N    2.944130    1.102493    0.660686
 C    4.122393    2.251137   -1.238971
 O    0.240560    3.314637    0.337908
 C   -2.150060    1.672925    0.039554
 C   -3.784998   -0.086166   -0.141458
 S   -5.431181   -0.613415   -0.549038
 O   -5.358848   -1.958282   -1.098033
 O   -6.074221    0.478521   -1.264535
 H   -4.166568    1.960830   -0.651491
 H    2.259525    2.210023    2.265710
 H    2.672099    3.162110    0.823578
 H   -3.135476   -2.070602    0.389004
 H   -0.843396   -1.337441    0.966059
 H   -6.660845   -1.663251    0.986754
 H   -6.774027    0.005519    1.147060
 H    0.670825    0.304398    1.190371
 H    4.711231    2.964283   -0.652345
 H    4.723541    1.939590   -2.095052
 H    3.231491    2.765189   -1.613916
 H   -1.866369    2.710350   -0.067219
