32 
5nxw_ligand_dft.xyz
 O   -6.791578    1.393683    0.392874
 S   -6.271271    0.069125    0.086605
 O   -6.647928   -1.106905    0.854644
 N   -6.644623   -0.287957   -1.509895
 C   -4.499546    0.184586    0.079774
 C   -3.733783   -0.976640    0.093608
 C   -3.893296    1.435572    0.068789
 C   -2.509859    1.516522    0.059752
 C   -1.729181    0.354600    0.062893
 C   -2.348363   -0.901515    0.083108
 N   -0.334141    0.522126    0.054025
 C    0.646056   -0.439071    0.033031
 O    0.443698   -1.637129    0.019591
 C    2.046615    0.157278    0.026692
 S    3.244974   -1.205842    0.008933
 C    4.689528   -0.205445   -0.000448
 N    4.709694    1.087692    0.002740
 S    6.281494   -0.945998   -0.019823
 C    6.895265    0.697439   -0.047335
 N    5.976916    1.613742   -0.033996
 N    8.240657    0.967137    0.001625
 H   -7.051682    0.518351   -1.973331
 H   -7.263631   -1.092235   -1.541067
 H   -4.220411   -1.945706    0.125593
 H   -4.501287    2.333340    0.081350
 H   -2.031883    2.492975    0.055492
 H   -1.746461   -1.798612    0.095496
 H   -0.017228    1.481512    0.061294
 H    2.212778    0.780858    0.910647
 H    2.199591    0.792597   -0.851288
 H    8.843725    0.355225   -0.529279
 H    8.439647    1.948803   -0.143880
