46 
5ny1_ligand_xtb.xyz
 C    5.554171   -0.113349   -1.113907
 C    4.300074   -0.460950   -0.616441
 C    3.462947   -1.618373   -0.717265
 C    3.298523    2.656786    1.363237
 C    2.343415   -1.328498    0.014512
 C    3.596515    0.455805    0.185422
 C    4.090866    1.714313    0.511449
 C    1.151068   -2.144397    0.273194
 C    6.052557    1.127531   -0.792192
 O   -6.851857    0.707296    0.055933
 S   -5.651482    1.046625   -0.650310
 O   -5.647934    1.041609   -2.084105
 N   -5.173573    2.582396   -0.133460
 C   -4.296655    0.067383   -0.041248
 C   -4.344579   -0.413499    1.250696
 C   -3.272920   -1.140694    1.740177
 C   -3.210140   -0.168789   -0.859105
 C   -2.144185   -0.901011   -0.368522
 C   -2.166199   -1.387924    0.935597
 C   -0.994426   -2.178156    1.457742
 N    0.267921   -1.565533    1.125877
 O    0.970588   -3.246022   -0.216237
 C    3.769172   -2.863608   -1.463273
 O    2.408234   -0.070979    0.569692
 C    5.346862    2.038299    0.004998
 C    5.948426    3.374624    0.315647
 H    6.112578   -0.799724   -1.730733
 H    2.348963    2.205372    1.636811
 H    3.104786    3.585679    0.827994
 H    3.845096    2.904171    2.272671
 H    7.023900    1.418821   -1.164889
 H   -5.856592    2.991115    0.483681
 H   -4.978282    3.189037   -0.913363
 H   -5.221255   -0.219390    1.847273
 H   -3.297425   -1.523697    2.749786
 H   -3.225272    0.210241   -1.868251
 H   -1.290329   -1.107725   -0.996376
 H   -0.973901   -3.169064    0.988427
 H   -1.075434   -2.304214    2.542626
 H    0.453661   -0.633267    1.459502
 H    4.696457   -3.300451   -1.094512
 H    3.900708   -2.640760   -2.521548
 H    2.958765   -3.575607   -1.343147
 H    5.316277    4.176380   -0.064913
 H    6.933799    3.469182   -0.131975
 H    6.041568    3.511670    1.392407
