46 
5ny1_ligand_ani.xyz
 C    5.653756    0.050637   -0.912750
 C    4.390910   -0.391443   -0.508285
 C    3.672500   -1.638740   -0.610330
 C    2.927573    2.742406    1.175394
 C    2.481644   -1.399768   -0.001586
 C    3.549693    0.503188    0.161970
 C    3.878140    1.818685    0.459230
 C    1.307698   -2.264693    0.229168
 C    6.011170    1.356337   -0.625579
 O   -6.824991    0.661654    0.273343
 S   -5.688126    1.025512   -0.557743
 O   -5.743090    0.987056   -2.010570
 N   -5.248699    2.581287   -0.128845
 C   -4.305756    0.041629   -0.043127
 C   -4.296492   -0.508424    1.234215
 C   -3.202138   -1.267904    1.631819
 C   -3.249579   -0.165246   -0.926145
 C   -2.160155   -0.919733   -0.512056
 C   -2.127542   -1.479806    0.767604
 C   -0.945407   -2.319228    1.194308
 N    0.309536   -1.655844    0.912833
 O    1.258933   -3.420678   -0.175059
 C    4.168679   -2.894654   -1.253076
 O    2.381982   -0.110358    0.471765
 C    5.151543    2.242543    0.051796
 C    5.607067    3.650332    0.340411
 H    6.337107   -0.612808   -1.437153
 H    1.991936    2.239666    1.431547
 H    2.681779    3.615518    0.559239
 H    3.368946    3.125522    2.102809
 H    6.991091    1.718286   -0.930774
 H   -5.897678    2.950518    0.558096
 H   -5.189138    3.166642   -0.955474
 H   -5.141533   -0.349404    1.897716
 H   -3.181516   -1.705037    2.627793
 H   -3.290382    0.256963   -1.926012
 H   -1.323338   -1.081142   -1.186885
 H   -0.911869   -3.270698    0.653553
 H   -1.014397   -2.552295    2.265430
 H    0.425809   -0.689911    1.184686
 H    5.095863   -3.233218   -0.777764
 H    4.386783   -2.728342   -2.313769
 H    3.417381   -3.682622   -1.166727
 H    4.930053    4.389646   -0.102404
 H    6.607843    3.830090   -0.059892
 H    5.636916    3.848245    1.418263
