39 
5ny3_ligand_ani.xyz
 N    7.051994   -0.270688    1.536139
 C    5.008584   -0.183365   -0.244921
 C    4.016042   -1.134145   -0.026528
 C    2.684275   -0.764187   -0.166007
 C    2.334987    0.540754   -0.528239
 C    3.351487    1.474226   -0.746242
 C    4.689224    1.120460   -0.611011
 C    0.274779    1.315339    0.730347
 C    0.883413    0.940334   -0.630874
 C   -2.091758    0.755346    0.496842
 C   -6.956687    0.756445   -0.254961
 C   -5.716951    1.358612   -0.091286
 C   -4.576677    0.595212    0.178610
 C   -7.060052   -0.624797   -0.141443
 C   -4.693442   -0.792804    0.289446
 C   -5.936035   -1.394759    0.129714
 O   -1.841078   -0.439581    0.529555
 N   -3.359524    1.286723    0.328250
Cl   -8.607192   -1.396490   -0.340706
 N   -1.119582    1.721225    0.659078
 S    6.710435   -0.644888   -0.057895
 O    6.791546   -2.091807   -0.181400
 O    7.506053    0.252137   -0.881086
 H    7.292636   -1.112671    2.048731
 H    7.785924    0.428678    1.579070
 H    4.293316   -2.150135    0.238776
 H    1.901089   -1.499902    0.006228
 H    3.094810    2.490783   -1.034769
 H    5.480449    1.840097   -0.800116
 H    0.843390    2.134447    1.183310
 H    0.330028    0.457011    1.403976
 H    0.293121    0.115466   -1.045147
 H    0.780253    1.792183   -1.314859
 H   -7.837932    1.353884   -0.467614
 H   -5.634637    2.438687   -0.184688
 H   -3.814298   -1.387098    0.498832
 H   -6.028945   -2.473419    0.215750
 H   -3.451385    2.288454    0.409656
 H   -1.302037    2.639249    0.279688
