45 
5nz4_ligand_dft.xyz
 C   -3.935637    0.095942   -0.164045
 O   -4.176382    1.400005   -0.337736
 O   -4.797361   -0.737201   -0.006571
 C   -2.485499   -0.247164   -0.177577
 C   -2.196559   -1.708470    0.034636
 C   -0.735227   -2.088871   -0.224436
 C    0.224336   -1.038001    0.347412
 N    1.663336   -1.235209    0.152425
 C    2.441588   -2.330347    0.094477
 O    2.012218   -3.498625    0.115180
 C    3.922359   -2.091756   -0.016838
 C   -0.068768    0.316610   -0.333027
 C   -1.528369    0.668457   -0.318024
 O    0.716082    1.260593    0.347787
 C    1.110998    2.416358   -0.424466
 C    2.457335    2.147633   -1.101173
 C    1.101195    3.608693    0.522667
 C   -0.298178    3.954272    1.025504
 C    3.637176    2.013859   -0.137037
 N   -0.491125   -3.437742    0.379181
 H   -5.139478    1.522256   -0.308537
 H   -2.854850   -2.310419   -0.600586
 H   -2.469604   -1.963573    1.068718
 H   -0.544754   -2.206633   -1.295857
 H    0.022342   -0.917027    1.421500
 H    2.140838   -0.341645    0.210860
 H    4.407102   -2.504128    0.872524
 H    4.186908   -1.037146   -0.116579
 H    4.299412   -2.645351   -0.880032
 H    0.266669    0.231706   -1.381408
 H   -1.781653    1.716461   -0.445396
 H    0.354409    2.582886   -1.205596
 H    2.653271    2.959175   -1.811050
 H    2.364533    1.237112   -1.710799
 H    1.758306    3.389677    1.371867
 H    1.537665    4.465936   -0.003551
 H   -0.962865    4.224306    0.196212
 H   -0.267095    4.803599    1.713057
 H   -0.739989    3.106991    1.559058
 H    3.879173    2.970029    0.334923
 H    3.428632    1.305531    0.675266
 H    4.532764    1.673653   -0.665246
 H   -0.752456   -3.456419    1.367905
 H   -1.035745   -4.161096   -0.095684
 H    0.594029   -3.636685    0.289478
