45 
5nze_ligand_ani.xyz
 C   -3.819599    0.138396   -0.062488
 O   -4.028799    1.473105    0.027622
 O   -4.737927   -0.650196   -0.042751
 C   -2.391646   -0.241493   -0.183756
 C   -2.138027   -1.728016   -0.171732
 C   -0.715486   -2.091749   -0.622577
 C    0.295573   -1.126662    0.020909
 N    1.673464   -1.495816   -0.278912
 C    2.375781   -2.364106    0.496539
 O    1.807082   -3.134151    1.270285
 C    3.874022   -2.338590    0.310589
 C    0.016148    0.291672   -0.481160
 C   -1.414839    0.671854   -0.241619
 O    0.911979    1.176719    0.168147
 C    0.954610    2.486298   -0.391047
 C    2.153573    2.627933   -1.335816
 C    0.979196    3.475593    0.768858
 C   -0.293948    3.421509    1.608716
 C    3.511997    2.453679   -0.660177
 N   -0.367685   -3.516951   -0.275757
 H   -4.992076    1.571367    0.098501
 H   -2.891240   -2.216280   -0.796742
 H   -2.303812   -2.099841    0.849850
 H   -0.646624   -1.996586   -1.708305
 H    0.153550   -1.155816    1.109065
 H    2.209708   -0.803915   -0.783163
 H    4.332716   -2.983368    1.060635
 H    4.268674   -1.320503    0.411566
 H    4.139289   -2.700866   -0.688257
 H    0.217627    0.305590   -1.568847
 H   -1.624045    1.730592   -0.106109
 H    0.039072    2.654266   -0.979096
 H    2.096742    3.616980   -1.811071
 H    2.041460    1.893383   -2.144545
 H    1.842061    3.246484    1.403479
 H    1.130292    4.486607    0.366789
 H   -1.174904    3.715101    1.022814
 H   -0.229864    4.097022    2.467486
 H   -0.460981    2.405560    1.983754
 H    3.712544    3.264264    0.048735
 H    3.560829    1.509060   -0.106721
 H    4.317925    2.455772   -1.400632
 H   -1.216449   -4.046762   -0.009706
 H    0.076918   -3.994517   -1.082935
 H    0.317322   -3.525942    0.528296
