45 
5nze_ligand_xtb.xyz
 C   -3.932735    0.228444   -0.154665
 O   -4.121728    1.535379   -0.308095
 O   -4.823852   -0.569076   -0.023700
 C   -2.494255   -0.165559   -0.161222
 C   -2.261037   -1.633659    0.049997
 C   -0.824149   -2.077758   -0.232725
 C    0.158517   -1.055153    0.348818
 N    1.587550   -1.308185    0.172346
 C    2.329189   -2.405418    0.107445
 O    1.871477   -3.565197    0.122486
 C    3.804755   -2.191012    0.007041
 C   -0.066842    0.315119   -0.337559
 C   -1.512429    0.714391   -0.315854
 O    0.769040    1.225533    0.331178
 C    1.198705    2.372525   -0.420910
 C    2.523406    2.061968   -1.136283
 C    1.300008    3.547593    0.551938
 C   -0.071683    4.018054    1.020601
 C    3.691921    1.844713   -0.178533
 N   -0.600983   -3.417987    0.350892
 H   -5.070018    1.746518   -0.297072
 H   -2.965390   -2.188878   -0.573484
 H   -2.521416   -1.856868    1.090434
 H   -0.655169   -2.156657   -1.311559
 H   -0.039071   -0.922217    1.421403
 H    2.079623   -0.415881    0.213247
 H    4.200154   -1.938754    0.990395
 H    4.045981   -1.382496   -0.677269
 H    4.280430   -3.110338   -0.323767
 H    0.244844    0.222815   -1.394848
 H   -1.725397    1.764321   -0.439854
 H    0.440537    2.605646   -1.179975
 H    2.751697    2.887084   -1.810557
 H    2.381535    1.169954   -1.756097
 H    1.887654    3.235354    1.414576
 H    1.820447    4.365047    0.052977
 H   -0.666890    4.371638    0.181237
 H    0.036397    4.834895    1.728190
 H   -0.603380    3.206955    1.512500
 H    4.015040    2.788736    0.248968
 H    3.410790    1.185859    0.642011
 H    4.537592    1.410531   -0.706485
 H   -0.871816   -3.441518    1.335164
 H   -1.130958   -4.133596   -0.145500
 H    0.591091   -3.623546    0.259226
