15 
5nzp_ligand_ani.xyz
 C   -1.573458   -1.247151    0.025018
 C   -0.241094   -0.848106   -0.002379
 C    0.134791    0.483698   -0.025208
 C    1.603266    0.504514   -0.009374
 N    1.953441   -0.848440   -0.131414
 C   -2.519028   -0.230648    0.020167
 C   -0.819534    1.498431   -0.026545
 C   -2.154936    1.124348   -0.005912
 O    0.832161   -1.686167    0.014140
 O    2.402354    1.412641    0.064354
 H   -1.847452   -2.296043    0.046385
 H    2.731309   -1.219681    0.400238
 H   -3.574472   -0.492667    0.039598
 H   -0.510052    2.539398   -0.042155
 H   -2.929587    1.885770   -0.006736
