20 
5nzq_ligand_xtb.xyz
 N   -3.153300   -1.697791   -0.073005
 C   -1.981876    1.778792    0.005998
 C   -2.831419    0.689139    0.005993
 C   -0.610457    1.608746    0.003189
 C    3.200279   -0.972016    0.005939
 C    2.421833    0.981406   -0.008837
 C   -0.931713   -0.779455   -0.001436
 N    3.578523    0.262754   -0.004118
 O    1.875487   -1.141612    0.008817
 C   -2.313926   -0.607827    0.000276
 C   -0.077790    0.318602   -0.001165
 C    1.356429    0.116927   -0.000929
 H   -4.109413   -1.551617    0.205650
 H   -2.764432   -2.587171    0.193900
 H   -2.397161    2.775826    0.011421
 H   -3.902420    0.831842    0.008983
 H    0.046017    2.463293    0.006582
 H    3.837449   -1.833395    0.012042
 H    2.439070    2.050676   -0.018143
 H   -0.517719   -1.777178   -0.005276
