26 
5o07_ligand_ani.xyz
 S    2.386592    0.114234   -0.415398
 O    2.337021   -1.173081   -1.070451
 O    2.504646    1.346939   -1.149224
 O    1.083075    0.312480    0.498471
 N    3.569612   -0.006564    0.747935
 C    0.716643   -0.799355    1.345954
 C   -0.751256   -0.649611    1.708600
 N   -2.137648   -1.231206   -1.537143
 N   -1.762676    1.907370    0.235705
 C   -1.789613    0.564704   -0.256852
 C   -2.113965    0.131421   -1.513770
 C   -1.823919   -1.618794   -0.320163
 C   -1.727123   -3.044952    0.120501
 N   -1.591914   -0.564737    0.521040
 O   -1.881821    2.790673   -0.593899
 O   -1.647524    2.094395    1.441686
 H    4.299173   -0.644606    0.447027
 H    3.941858    0.908996    0.981544
 H    1.341386   -0.773840    2.244175
 H    0.891057   -1.734496    0.804202
 H   -0.907928    0.244951    2.303541
 H   -1.077495   -1.515938    2.287415
 H   -2.339150    0.732148   -2.384739
 H   -2.317380   -3.233744    1.025011
 H   -2.096907   -3.683586   -0.683428
 H   -0.689488   -3.333368    0.330576
