28 
5o0s_ligand_ani.xyz
 C    0.373242   -0.696405   -1.116910
 C   -0.477602   -1.640742   -0.271549
 C   -1.911874   -1.165313   -0.152343
 C   -1.958419    0.231724    0.462265
 C   -1.204171    1.233277   -0.413489
 C   -1.172125    2.617488    0.223560
 C    0.210992    0.779361   -0.734407
 O    1.767958   -0.992247   -0.846966
 O   -0.497839   -2.941184   -0.827641
 O   -2.648369   -2.019581    0.697402
 O   -3.292707    0.668127    0.592559
 O   -0.478450    3.476920   -0.665220
 O    1.038129    0.895463    0.454070
 S    2.309823   -0.095843    0.389098
 O    3.480168    0.615409   -0.042247
 O    2.327723   -0.874417    1.596584
 H    0.200869   -0.879595   -2.180208
 H   -0.055069   -1.664741    0.745171
 H   -2.374636   -1.128740   -1.154752
 H   -1.472800    0.180845    1.455125
 H   -1.749722    1.315028   -1.362650
 H   -2.199982    2.965561    0.394329
 H   -0.660607    2.556183    1.192960
 H    0.647798    1.431295   -1.499485
 H    0.394075   -3.298590   -0.722915
 H   -2.497638   -2.920123    0.376025
 H   -3.767638   -0.042274    1.046192
 H   -0.154997    4.234389   -0.166446
