37 
5o11_ligand_ani.xyz
 C   -1.356186    0.264994   -0.046960
 C   -2.355892   -0.722313    0.046517
 C   -3.706422   -0.328795    0.100767
 C   -4.054948    0.999666    0.035246
 C   -3.053166    1.986395   -0.080836
 C   -1.729309    1.622420   -0.098093
 C   -0.544196   -2.380286    0.067544
 C   -1.923637   -2.109667    0.100619
 N    0.000218   -0.012253   -0.087001
 C    0.395735   -1.242754   -0.069841
 C   -1.115122   -4.707278    0.273584
 N   -2.438519   -4.465137    0.269484
 C   -2.809398   -3.202688    0.188823
 C   -0.154413   -3.730704    0.183331
 N    1.729779   -1.564225   -0.188586
 C    2.873894   -0.751895   -0.222678
 C    2.886794    0.585435    0.179566
 C    4.089253    1.280062    0.144470
 C    5.278810    0.698978   -0.272104
 C    5.252336   -0.634084   -0.667325
 C    4.068051   -1.355329   -0.641818
Cl    4.096615    2.949592    0.641139
 C   -3.375042    3.452374   -0.130797
 O   -2.621325    4.307624    0.251403
 O   -4.581264    3.782024   -0.641192
 H   -4.492352   -1.074708    0.186568
 H   -5.104785    1.278111    0.116097
 H   -0.952692    2.378598   -0.149800
 H   -0.826644   -5.754271    0.349680
 H   -3.885019   -3.030673    0.193107
 H    0.890242   -4.028260    0.228315
 H    1.898112   -2.522926   -0.442053
 H    1.977000    1.073885    0.505118
 H    6.196243    1.277793   -0.283613
 H    6.167486   -1.118650   -0.995969
 H    4.064264   -2.398879   -0.948746
 H   -4.996789    3.003834   -1.037124
