20 
5o1s_ligand_xtb.xyz
 C    3.367598   -1.085295    0.110925
 C   -3.287435   -1.144365   -0.039094
 O   -2.501476   -0.060782   -0.517484
 C   -1.475034    0.305853    0.252083
 O   -1.215468   -0.201475    1.310462
 C   -0.708528    1.454605   -0.373199
 C    0.723999    1.468385    0.145951
 C    1.438791    0.192907   -0.249859
 O    1.028759   -0.616155   -1.038208
 O    2.607155    0.083449    0.388994
 H    2.804073   -1.976849    0.392049
 H    3.604700   -1.139605   -0.953524
 H    4.275811   -1.004389    0.702206
 H   -2.670494   -2.039215    0.060873
 H   -3.716560   -0.901371    0.935202
 H   -4.071124   -1.300422   -0.775551
 H   -1.217196    2.385191   -0.114719
 H   -0.733687    1.332411   -1.455653
 H    0.736853    1.534546    1.234580
 H    1.279519    2.316875   -0.256413
