73 
5o22_ligand_ani.xyz
 C   -4.400080    2.323405   -0.132142
 C   -1.391425    3.692909   -0.720660
 C    0.642580    1.677767    0.216324
 C    1.653502    1.733467   -0.655969
 C    3.833868    1.553047    0.649826
 C    3.577815    0.062519    0.884854
 C    3.905351   -0.339202    2.319745
 C    4.137428   -2.275277   -0.045917
 C   -7.172884   -0.437202    0.095199
 C   -5.775986    0.157903    0.315942
 C   -4.737201   -0.867129   -0.063145
 C   -3.906773   -1.460887    0.788079
 C   -2.908906   -2.525453    0.433962
 O   -2.890475   -2.778297   -0.951905
 C   -1.466627   -2.205116    0.888010
 O   -0.757795   -3.400905    0.671650
 C   -5.648402    1.490201   -0.454767
 C   -3.118319    1.832648   -0.816767
 C   -1.819965    2.337579   -0.156077
 C   -0.727099    1.268019   -0.293401
 C    0.721038    1.977816    1.688856
 C    3.024419    2.323417   -0.409781
 C    2.972537    3.820953   -0.073761
 C    4.361157   -0.748971   -0.165536
 O    3.941532   -0.260549   -1.421702
 C    4.683488   -0.743253   -2.519236
 C    2.668615   -2.616538   -0.105578
 O    1.991495   -2.845368    0.886882
 O    2.167384   -2.588893   -1.332946
 O    4.717377    2.119194    1.256264
 O   -1.194047    0.126396    0.489929
 C   -0.852895   -1.083124    0.052761
 O   -0.140213   -1.270466   -0.914385
 H   -4.578358    3.374695   -0.397235
 H   -4.254795    2.306643    0.958054
 H   -0.478742    4.057780   -0.237980
 H   -1.192276    3.620213   -1.798001
 H   -2.174616    4.445474   -0.574070
 H    1.494157    1.302299   -1.646863
 H    2.515696   -0.123378    0.682766
 H    3.366324    0.298176    3.027966
 H    3.601293   -1.373235    2.509156
 H    4.975948   -0.235461    2.520596
 H    4.668197   -2.786089   -0.853661
 H    4.533246   -2.635245    0.904822
 H   -7.319320   -0.673325   -0.965991
 H   -7.957298    0.267397    0.394415
 H   -7.304950   -1.361050    0.667482
 H   -5.660610    0.376245    1.390455
 H   -4.684515   -1.136413   -1.120422
 H   -3.908623   -1.197353    1.846310
 H   -3.177623   -3.440017    0.985002
 H   -2.152262   -3.392957   -1.084787
 H   -1.472001   -1.912508    1.949396
 H    0.194511   -3.220747    0.791518
 H   -6.538438    2.087327   -0.216391
 H   -5.702412    1.285873   -1.535858
 H   -3.122289    0.739010   -0.832648
 H   -3.126019    2.130230   -1.875077
 H   -1.997299    2.434424    0.922943
 H   -0.652735    0.947653   -1.337984
 H    1.742146    2.182458    2.023661
 H    0.091916    2.840299    1.943659
 H    0.333653    1.124798    2.257282
 H    3.599782    2.190962   -1.333073
 H    2.439011    4.014718    0.862168
 H    2.449784    4.356785   -0.871371
 H    3.982527    4.224043    0.020956
 H    5.440097   -0.556852   -0.045533
 H    4.476949   -0.069135   -3.354636
 H    4.381421   -1.759400   -2.803807
 H    5.765516   -0.732011   -2.314015
 H    1.189524   -2.508222   -1.254430
