40 
5o2d_ligand_ani.xyz
 O   24.619143  -19.509803  -20.688265
 S   23.819854  -18.441402  -21.259343
 O   24.100364  -17.046535  -20.965024
 C   23.801507  -18.648241  -23.019382
 N   22.182961  -18.606115  -20.837740
 C   21.671335  -19.850376  -20.357160
 C   21.224794  -20.826344  -21.253329
 C   20.805870  -22.059877  -20.736344
 C   20.790302  -22.300123  -19.370958
 C   21.210787  -21.308874  -18.490389
 C   21.646530  -20.087546  -18.983146
 C   21.136993  -20.538742  -22.704906
 C   20.533891  -19.380884  -23.189977
 C   20.378590  -19.147735  -24.564747
 C   20.878402  -20.039392  -25.499358
 C   21.524395  -21.188743  -25.040925
 C   21.628031  -21.442525  -23.660398
 C   22.202788  -22.279154  -25.713651
 C   22.689719  -23.130488  -24.709265
 N   22.320931  -22.621231  -23.479608
 C   22.432801  -22.577849  -27.059669
 C   23.144650  -23.722478  -27.374579
 C   23.628251  -24.567361  -26.356970
 C   23.410383  -24.285849  -25.019423
 H   22.998475  -18.036731  -23.432721
 H   24.771030  -18.311867  -23.390816
 H   23.651483  -19.702741  -23.250187
 H   21.990988  -17.830110  -20.209476
 H   20.459516  -22.825343  -21.427279
 H   20.449567  -23.260344  -18.993240
 H   21.200563  -21.485430  -17.418593
 H   21.992041  -19.312574  -18.301158
 H   20.168680  -18.642642  -22.482030
 H   19.873932  -18.244390  -24.897008
 H   20.772735  -19.845543  -26.564280
 H   22.651325  -22.948079  -22.586181
 H   22.059476  -21.923840  -27.845004
 H   23.334187  -23.973784  -28.414481
 H   24.185290  -25.460707  -26.627490
 H   23.787436  -24.946207  -24.241498
