27 
5o4f_ligand_xtb.xyz
 N    1.484351    1.629951    0.137632
 N   -1.134832    0.565170   -1.350444
 C   -0.060034   -0.062869    0.666678
 C   -1.171208   -0.480433   -0.293151
 C    2.202417    2.862680    0.284018
 C    1.634103   -1.911068   -0.088404
 C   -2.551716   -0.511854    0.379696
 C    1.331847   -0.510744    0.214433
 N    2.110879    0.487502   -0.000471
 C   -0.876909    1.843079   -0.628547
 C    0.078475    1.465670    0.523705
 O    2.919354   -2.200840   -0.092414
 O   -3.501228   -0.157670   -0.493841
 O    0.746449   -2.696868   -0.352814
 O   -2.735458   -0.815071    1.513377
 H   -0.371986    0.365947   -2.006539
 H   -2.028164    0.577154   -1.860251
 H   -0.282204   -0.422629    1.673528
 H   -0.964828   -1.488783   -0.682964
 H    2.237385    3.180107    1.329389
 H    3.217709    2.695622   -0.066420
 H    1.738592    3.650455   -0.310278
 H   -1.820966    2.219149   -0.233002
 H   -0.444392    2.586386   -1.297679
 H   -0.141762    2.038210    1.425882
 H    3.072841   -3.134671   -0.314373
 H   -4.389785   -0.248486   -0.109345
