62 
5o4s_ligand_ani.xyz
 C    2.858284    0.283670   -0.395561
 C   -4.246912   -0.389919   -0.495373
 C    2.118724    1.428665   -0.695149
 C    0.966440    1.747713    0.010269
 C    0.550435    0.899214    1.062171
 C   -1.045183    2.569941   -1.071058
 C   -1.949367    3.792187   -1.098409
 C   -0.116988    5.215644   -0.855370
 C    0.840830    4.034737   -0.848808
 C   -2.537252   -0.441691    1.176044
 C   -3.633790    0.194522    0.603177
 N    4.016609   -0.045288   -1.117137
 N    0.152324    2.881682   -0.283128
 C    4.447152    0.812561   -2.216250
 N   -0.571807    1.306480    1.812587
 N    3.190461   -1.688768    0.983496
 C    2.773147   -2.531382    2.097506
 O    4.972509   -3.050072    0.589816
 C    4.331009   -2.059658    0.307471
 C   -3.788052   -1.599016   -1.029379
 C   -4.463993   -2.180478   -2.257831
 C   -4.162879   -3.664681   -2.467926
 C   -2.660854   -3.910912   -2.350681
 C   -2.187486   -3.574863   -0.935994
 C    4.784872   -1.156298   -0.849718
 C   -2.692096   -2.236081   -0.433811
 C   -2.073440   -1.646453    0.672520
 C    1.274483   -0.237280    1.368547
 C    2.433878   -0.554543    0.658456
 O    5.782598   -1.436677   -1.480560
 O   -1.273789    4.921315   -1.613998
 O   -2.621054    1.271620    3.162440
 O   -1.029457   -0.699091    3.303667
 S   -1.707267    0.332637    2.537795
 H   -5.105112    0.097799   -0.951171
 H    2.450958    2.087215   -1.489131
 H   -0.777684    2.279808   -2.101053
 H   -1.571225    1.721612   -0.619592
 H   -2.320896    3.999849   -0.081479
 H   -2.811297    3.619536   -1.750743
 H    0.349244    6.091401   -1.317577
 H   -0.392675    5.468662    0.180249
 H    1.713187    4.265282   -0.229743
 H    1.186419    3.856547   -1.882792
 H   -3.995764    1.132262    1.017440
 H    4.669458    1.822083   -1.854909
 H    5.349765    0.376075   -2.639732
 H    3.674949    0.865932   -2.990691
 H   -0.849560    2.277708    1.731038
 H    1.767721   -2.926666    1.919919
 H    3.479475   -3.355566    2.174812
 H    2.772806   -1.960172    3.031893
 H   -4.121415   -1.617259   -3.138755
 H   -5.545799   -2.010608   -2.195131
 H   -4.540841   -3.990882   -3.444120
 H   -4.688744   -4.258418   -1.707207
 H   -2.131927   -3.276702   -3.075770
 H   -2.410903   -4.950269   -2.594178
 H   -1.091912   -3.598123   -0.880140
 H   -2.537665   -4.355879   -0.244345
 H   -1.229251   -2.141319    1.145105
 H    0.939611   -0.851209    2.192383
