42 
5o7n_ligand_ani.xyz
 C   -3.972264    0.060743   -0.645280
 C    3.625432   -2.234820   -0.700077
 C    2.163844   -2.565900   -0.416543
 C    1.523659   -1.484735    0.445945
 C    3.051188    0.202074   -0.515450
 C    3.726460   -0.866233   -1.367366
 C    3.899786    0.538271    0.707360
 C   -2.828408   -0.683157   -0.342657
 C   -1.459555   -0.229027   -0.797962
 C   -0.669388    0.516923    0.302828
 C   -1.356154    1.791604    0.815493
 C    0.751569    0.835526   -0.170545
 C   -2.976179   -1.844969    0.421205
 C   -4.227551   -2.248421    0.875443
 C   -5.357290   -1.495462    0.570986
 C   -5.225655   -0.339384   -0.192100
 N    1.680666   -0.172963   -0.184167
 O    1.049971    1.962971   -0.551056
 O    3.185736    1.023648    1.739231
 O    5.101590    0.420260    0.748863
 S   -1.895040    2.993936   -0.436510
 H   -3.878190    0.965105   -1.242828
 H    4.075331   -2.999434   -1.342233
 H    4.201278   -2.224650    0.235751
 H    2.071815   -3.533991    0.090853
 H    1.614573   -2.646078   -1.364154
 H    0.467140   -1.711780    0.590081
 H    1.992161   -1.474971    1.441047
 H    2.983996    1.138900   -1.078633
 H    4.770015   -0.580461   -1.528498
 H    3.224628   -0.891546   -2.341646
 H   -1.551199    0.429914   -1.668719
 H   -0.875851   -1.095925   -1.127293
 H   -0.589690   -0.143716    1.176393
 H   -0.697667    2.301304    1.524831
 H   -2.267198    1.522631    1.359379
 H   -2.101429   -2.449246    0.661427
 H   -4.321203   -3.155047    1.468120
 H   -6.336305   -1.809440    0.924409
 H   -6.102813    0.254297   -0.438065
 H    3.832843    1.234643    2.431960
 H   -0.671593    3.204032   -0.942836
