42 
5o7n_ligand_dft.xyz
 C   -3.943488    0.003184   -0.580216
 C    3.362595   -2.225262   -0.969395
 C    1.904385   -2.468806   -0.577383
 C    1.430621   -1.423779    0.432873
 C    3.018414    0.226818   -0.459290
 C    3.548155   -0.792856   -1.472440
 C    3.954003    0.345250    0.742810
 C   -2.746182   -0.671897   -0.333423
 C   -1.420200   -0.108076   -0.786089
 C   -0.693442    0.657714    0.347090
 C   -1.429834    1.928985    0.798604
 C    0.751365    0.966216   -0.049129
 C   -2.792348   -1.873182    0.379284
 C   -3.999645   -2.386675    0.840662
 C   -5.186635   -1.701728    0.593307
 C   -5.154597   -0.506867   -0.119503
 N    1.647790   -0.072495   -0.075279
 O    1.095669    2.098064   -0.370549
 O    3.313333    0.667012    1.879949
 O    5.152087    0.205753    0.687345
 S   -1.902663    3.137858   -0.487509
 H   -3.921008    0.937695   -1.134933
 H    3.676629   -2.939074   -1.737613
 H    4.011308   -2.390748   -0.098817
 H    1.778585   -3.466439   -0.142328
 H    1.266802   -2.415995   -1.469677
 H    0.376563   -1.572485    0.657357
 H    1.979743   -1.539677    1.378505
 H    2.998596    1.225450   -0.906258
 H    4.602459   -0.581764   -1.665775
 H    2.996938   -0.652100   -2.409154
 H   -1.562693    0.577384   -1.626831
 H   -0.779651   -0.921463   -1.145012
 H   -0.678387    0.013139    1.235353
 H   -0.834753    2.442644    1.556866
 H   -2.375370    1.635243    1.262716
 H   -1.869970   -2.419970    0.567517
 H   -4.015015   -3.324575    1.388325
 H   -6.131063   -2.100177    0.951798
 H   -6.076393    0.031136   -0.320605
 H    4.002494    0.772149    2.555628
 H   -0.645465    3.410500   -0.870462
