57 
5o83_ligand_ani.xyz
 C    6.383330   -1.364768   -1.357222
 C    5.580648   -2.125862   -0.307833
 C    4.125889   -2.035067    1.653810
 O   -5.267003   -2.618260   -0.261400
 C   -1.687838    2.582540   -0.638830
 C   -0.062675    0.831970   -0.073102
 C    0.960195    1.945018   -0.116088
 C   -2.361306    0.235466   -0.539547
 C   -2.159959   -1.102885   -0.877038
 C   -4.300529   -1.704715   -0.359234
 C   -4.940362   -3.950892   -0.637897
 C   -4.619717   -0.387021    0.020644
 C   -3.638986    0.580320   -0.069041
 C   -6.004083   -0.056377    0.503481
 F   -6.110844    1.255777    0.794671
 F   -6.938144   -0.337444   -0.419540
 F   -6.324763   -0.739069    1.614750
 N   -3.104032   -2.045757   -0.794446
 N   -1.333799    1.175847   -0.701496
 C   -0.617959    3.407398   -1.342430
 C    0.719636    3.170265   -0.704807
 N    1.632240    4.156326   -0.728898
 C    2.778542    3.886939   -0.121216
 N    3.133965    2.760333    0.499110
 C    2.226563    1.779097    0.485537
 N    2.549099    0.602043    1.092506
 C    3.827171    0.377463    1.752048
 C    3.776179   -0.890762    2.612040
 C    4.971764    0.069100    0.766978
 N    4.938425   -1.382190    0.630261
 O    5.506120   -3.347574   -0.306801
 C    7.169684   -2.298237   -2.266440
 H    7.052996   -0.651227   -0.858347
 H    5.687660   -0.759579   -1.956583
 H    3.242162   -2.498707    1.198855
 H    4.698105   -2.838097    2.127541
 H   -2.648383    2.726554   -1.143263
 H   -1.794099    2.923917    0.406131
 H   -0.221287    0.516898    0.973812
 H    0.339355   -0.049122   -0.593061
 H   -1.196798   -1.427737   -1.262347
 H   -5.856120   -4.521751   -0.484850
 H   -4.133537   -4.343771   -0.013414
 H   -4.630823   -3.993394   -1.685519
 H   -3.860166    1.593262    0.253575
 H   -0.577871    3.109550   -2.397033
 H   -0.855331    4.472914   -1.305478
 H    3.519780    4.685081   -0.126970
 H    1.979748   -0.206145    0.893257
 H    4.051260    1.276945    2.326398
 H    4.532771   -0.825998    3.402355
 H    2.803592   -1.015437    3.096674
 H    4.816386    0.578031   -0.189231
 H    5.928551    0.414296    1.184379
 H    7.717580   -1.724573   -3.020568
 H    6.499437   -2.995098   -2.776727
 H    7.887441   -2.893660   -1.695040
