57 
5o83_ligand_xtb.xyz
 C    6.398684   -1.466515   -1.436718
 C    5.582705   -2.164147   -0.362253
 C    4.177055   -1.890110    1.610082
 O   -5.131901   -2.745984   -0.010152
 C   -1.730101    2.612528   -0.611727
 C   -0.000235    0.818707   -0.359886
 C    0.938194    1.970633   -0.150135
 C   -2.351084    0.252504   -0.411161
 C   -2.060951   -1.117874   -0.494443
 C   -4.218911   -1.775344   -0.139921
 C   -4.653294   -4.071287   -0.142940
 C   -4.631597   -0.436037   -0.028368
 C   -3.695520    0.571653   -0.156346
 C   -6.074091   -0.133104    0.238129
 F   -6.320365    1.188485    0.303746
 F   -6.888451   -0.612533   -0.715569
 F   -6.505303   -0.646360    1.402055
 N   -2.953580   -2.080277   -0.362864
 N   -1.382439    1.208614   -0.584609
 C   -0.657788    3.415032   -1.344443
 C    0.641708    3.231002   -0.634469
 N    1.447692    4.279687   -0.463704
 C    2.562376    4.051233    0.195569
 N    2.976664    2.895626    0.675165
 C    2.183959    1.833952    0.500986
 N    2.612705    0.650312    1.001117
 C    3.926253    0.495400    1.578390
 C    3.946824   -0.698553    2.535533
 C    4.979152    0.104776    0.527249
 N    4.937148   -1.340748    0.497361
 O    5.487779   -3.371119   -0.261847
 C    7.161612   -2.472600   -2.287945
 H    7.091728   -0.770843   -0.957750
 H    5.720323   -0.881915   -2.064115
 H    3.234700   -2.315609    1.244052
 H    4.741817   -2.700358    2.075812
 H   -2.676294    2.722383   -1.145063
 H   -1.849838    3.015093    0.405806
 H    0.038552    0.161928    0.521668
 H    0.352150    0.238991   -1.229149
 H   -1.062822   -1.478633   -0.691519
 H   -5.518801   -4.713311    0.001544
 H   -3.890063   -4.281490    0.609106
 H   -4.222785   -4.226226   -1.134447
 H   -4.020003    1.592602   -0.042023
 H   -0.565993    3.051535   -2.371036
 H   -0.916767    4.472239   -1.373726
 H    3.218831    4.896737    0.354627
 H    2.162398   -0.192357    0.684075
 H    4.171526    1.446326    2.053369
 H    4.778140   -0.591647    3.230919
 H    3.023417   -0.782479    3.104098
 H    4.739583    0.537404   -0.447626
 H    5.969502    0.464726    0.830242
 H    7.721773   -1.963861   -3.068740
 H    6.470214   -3.174837   -2.745655
 H    7.851727   -3.039511   -1.668920
