48 
5o8t_ligand_dft.xyz
 C   -0.257632   -2.024687   -0.579366
 C   -0.813790   -1.363907   -1.828455
 C   -1.707568   -0.188069   -1.404674
 C   -0.768867    0.874040   -0.812101
 C    0.003506    0.371137    0.413200
 N    1.217231    1.191496    0.521637
 C    2.347658    0.415954    0.190738
 C    3.665100    0.828340    0.017901
 C    4.601515   -0.138904   -0.342727
 C    4.246300   -1.476063   -0.514729
 C    2.925434   -1.875146   -0.320640
 C    1.980994   -0.919700    0.024519
 C    0.522609   -1.098547    0.374888
 C    0.327382   -1.800561    1.734418
 C   -1.135644   -2.205254    1.724677
 N   -1.408781   -2.598084    0.284217
 C   -2.780893   -2.169974   -0.190981
 C   -2.778973   -0.690825   -0.443627
 C   -3.660812    0.106091    0.161740
 C   -3.639809    1.607583    0.005629
 O   -2.433166    2.156561    0.492948
 C   -1.364296    2.240766   -0.432635
 C   -0.292789    3.112635    0.263609
 C    1.125551    2.560096    0.312683
 O    2.101706    3.271002    0.202652
 H    0.368787   -2.883463   -0.832307
 H    0.036643   -1.009228   -2.418434
 H   -1.342539   -2.088586   -2.455394
 H   -2.196595    0.234527   -2.291812
 H   -0.027779    1.081717   -1.596252
 H   -0.625962    0.527381    1.296684
 H    3.937698    1.865903    0.151017
 H    5.633759    0.161783   -0.490148
 H    4.997924   -2.207068   -0.791914
 H    2.654376   -2.922358   -0.436859
 H    0.981367   -2.676979    1.798176
 H    0.565766   -1.144561    2.574515
 H   -1.396153   -3.041800    2.374500
 H   -1.791966   -1.360753    1.945779
 H   -1.367774   -3.615657    0.218801
 H   -3.496070   -2.463717    0.579965
 H   -2.992465   -2.748258   -1.094823
 H   -4.405982   -0.321086    0.830325
 H   -3.799912    1.889714   -1.046792
 H   -4.440097    2.060039    0.593849
 H   -1.721885    2.736537   -1.346767
 H   -0.628518    3.259501    1.296681
 H   -0.219951    4.101995   -0.188958
