88 
5o9q_ligand_ani.xyz
 C    8.595220   -1.635001    0.376052
 C    7.817582   -0.625418    1.222863
 C    8.695057    0.500200    1.765085
 C    7.653268   -2.678145   -0.207148
 C   -9.934485   -0.253368   -0.001141
 C  -10.935505    0.686878    0.227294
 C  -11.500040    0.820094    1.493055
 C  -11.058483    0.008060    2.534896
 C  -10.058200   -0.930074    2.306101
 C   -9.491748   -1.067463    1.039041
 C   -8.393073   -2.081724    0.831532
 O   -8.162907   -2.273702   -0.549117
 C   -7.103098   -3.163960   -0.796399
 C   -5.769340   -2.525738   -0.561430
 C   -5.437956   -1.197634   -0.512524
 N   -4.650691   -3.267063   -0.353663
 N   -3.653172   -2.465571   -0.182281
 N   -4.100314   -1.209935   -0.291806
 C   -3.212622   -0.089937   -0.039083
 C   -1.787449   -0.413477   -0.497760
 O   -1.177186   -1.393629    0.308649
 O   -3.757338    0.978337   -0.781906
 C   -3.028173    2.189035   -0.617599
 C   -3.781572    3.289240   -1.362310
 O   -3.338692    4.570512   -0.985508
 C   -1.593458    2.013361   -1.128024
 O   -0.902466    3.221437   -0.880950
 C   -0.927541    0.832141   -0.420959
 O    0.307516    0.531432   -1.047173
 C    1.452316    0.859081   -0.322344
 C    2.596593    0.002510   -0.848956
 O    2.362252   -1.359900   -0.557766
 O    1.730825    2.231645   -0.491868
 C    2.875288    2.657124    0.244664
 C    2.988268    4.170878    0.086254
 O    3.871017    4.727475    1.028629
 C    4.120741    1.917365   -0.254985
 O    5.204123    2.318259    0.558974
 C    3.901760    0.403101   -0.191437
 O    4.944743   -0.264663   -0.882539
 C    5.867424   -0.943335   -0.088008
 O    6.806298   -0.018907    0.417326
 O    9.530068    0.061343    2.807641
 O    9.573558   -2.243790    1.197193
 O    8.425075   -3.518428   -1.041435
 C    6.535408   -1.993099   -0.968093
 O    5.589971   -2.974395   -1.344442
 H    9.072578   -1.094646   -0.456784
 H    7.349880   -1.149358    2.073727
 H    8.046048    1.280379    2.178081
 H    9.268612    0.951430    0.935715
 H    7.213990   -3.256834    0.623866
 H   -9.494867   -0.361129   -0.988210
 H  -11.277155    1.319074   -0.589831
 H  -12.281853    1.554946    1.667024
 H  -11.495231    0.106363    3.526189
 H   -9.712337   -1.566115    3.119290
 H   -7.468597   -1.741377    1.324719
 H   -8.672158   -3.036922    1.308880
 H   -7.197070   -3.479934   -1.841905
 H   -7.175852   -4.067598   -0.172707
 H   -6.017677   -0.289398   -0.593088
 H   -3.215419    0.145388    1.038035
 H   -1.842724   -0.727974   -1.551219
 H   -1.730135   -2.190078    0.236843
 H   -2.985388    2.463249    0.451572
 H   -4.843840    3.221692   -1.110452
 H   -3.688145    3.124213   -2.450854
 H   -2.369556    4.543894   -1.023640
 H   -1.618085    1.794004   -2.208349
 H    0.054764    3.060093   -0.947324
 H   -0.768236    1.095698    0.635159
 H    1.292033    0.651320    0.751529
 H    2.682666    0.177467   -1.933853
 H    1.429476   -1.529706   -0.758245
 H    2.732683    2.427975    1.314277
 H    3.282671    4.412538   -0.950945
 H    2.002527    4.616270    0.260581
 H    4.669287    4.176157    1.010883
 H    4.301495    2.190040   -1.307308
 H    5.941438    1.695868    0.434201
 H    3.882492    0.094395    0.864105
 H    5.350590   -1.437352    0.755107
 H    9.961136   -0.746764    2.490691
 H   10.008592   -2.923776    0.664845
 H    7.817855   -4.166049   -1.425354
 H    6.963486   -1.486875   -1.849436
 H    4.787317   -2.500967   -1.609057
