85 
5o9r_ligand_dft.xyz
 C    4.353197    1.943196    0.048087
 C    3.307147    2.807523    0.749967
 C    3.649846    4.279686    0.894565
 C    3.771996    0.539079   -0.088852
 C   -7.939089   -2.782634    1.583359
 C   -9.173638   -3.333955    2.038564
 C   -9.721888   -4.199586    1.139122
 S   -8.745443   -4.353231   -0.273331
 C   -7.566675   -3.244517    0.352568
 C   -6.363049   -2.843494   -0.448815
 O   -6.656167   -1.943633   -1.505489
 C   -7.120351   -0.679012   -1.069360
 C   -6.083965    0.090441   -0.308328
 C   -4.943790    0.706878   -0.758654
 N   -6.119139    0.217830    1.051825
 N   -5.083059    0.881225    1.451746
 N   -4.353771    1.180732    0.361315
 C   -3.146249    1.949707    0.498118
 C   -1.957043    1.293678   -0.203267
 O   -1.705245    0.046552    0.379994
 O   -3.386350    3.218779   -0.061134
 C   -2.314514    4.147715    0.088762
 C   -2.815074    5.448894   -0.523995
 O   -3.197329    5.271716   -1.867805
 C   -1.056038    3.616062   -0.600769
 O   -0.005823    4.521567   -0.344686
 C   -0.758728    2.222927   -0.060456
 O    0.315131    1.608300   -0.763757
 C    1.493966    1.484803   -0.058647
 C    2.401927    0.487586   -0.759749
 O    1.824656   -0.786137   -0.641090
 O    2.113237    2.755019   -0.026563
 O    2.663662    4.963146    1.627831
 O    5.528884    1.919445    0.819181
 O    4.653210   -0.271763   -0.850561
 C    5.241265   -1.347685   -0.224675
 O    6.575319   -0.984277    0.079515
 C    7.323369   -2.006685    0.722289
 C    8.697060   -1.394457    0.961148
 O    9.526710   -2.392012    1.535769
 C    7.376253   -3.268116   -0.158546
 O    7.950552   -4.368871    0.503865
 C    5.960650   -3.691565   -0.527460
 O    5.943595   -4.767780   -1.436791
 C    5.207413   -2.541112   -1.166883
 O    3.847378   -2.863795   -1.373884
 H    4.537428    2.356342   -0.956446
 H    3.112528    2.399734    1.754146
 H    4.589054    4.375934    1.443269
 H    3.793582    4.712047   -0.109012
 H    3.672469    0.121581    0.923545
 H   -7.353067   -2.049439    2.127697
 H   -9.631053   -3.093565    2.991117
 H  -10.646097   -4.754399    1.227287
 H   -5.905491   -3.708259   -0.936396
 H   -5.622100   -2.410724    0.237492
 H   -8.013475   -0.778706   -0.439397
 H   -7.399247   -0.148866   -1.983306
 H   -4.526426    0.837615   -1.744190
 H   -2.959951    2.014979    1.577812
 H   -2.192698    1.199087   -1.275486
 H   -0.901509   -0.300996   -0.036209
 H   -2.095956    4.302855    1.157378
 H   -2.008093    6.184149   -0.509730
 H   -3.648241    5.827030    0.085734
 H   -3.882766    4.590681   -1.865302
 H   -1.257716    3.548809   -1.678966
 H    0.812194    4.087197   -0.636844
 H   -0.500098    2.304507    1.005346
 H    1.301126    1.146898    0.975178
 H    2.501731    0.800232   -1.809484
 H    2.429072   -1.439282   -1.037381
 H    1.816655    4.856160    1.170851
 H    6.093390    1.214434    0.464415
 H    4.706994   -1.606997    0.704997
 H    6.863737   -2.275069    1.686668
 H    8.596210   -0.526988    1.626018
 H    9.093566   -1.049045   -0.004013
 H   10.418661   -2.040269    1.627781
 H    7.923692   -3.024721   -1.084729
 H    8.795621   -4.067017    0.873606
 H    5.442291   -3.970404    0.405474
 H    6.472548   -5.474061   -1.041183
 H    5.693136   -2.255216   -2.110107
 H    3.821812   -3.735249   -1.792258
