91 
5o9y_ligand_ani.xyz
 C    3.793359    1.961926   -0.080287
 C    2.454743    2.477317    0.445964
 C    2.312106    3.994518    0.429513
 C    3.733192    0.437150   -0.260328
 C   -7.539563   -0.730637    1.887320
 C   -6.781608    0.386905    2.084362
 C   -6.868875    1.446903    1.144408
 C   -7.746092    1.363770    0.103206
 C   -8.680374    0.230696   -0.061443
 N   -8.362113   -0.889221    0.818960
 C   -9.093039   -2.131072    0.628011
 C   -8.249183   -3.403420    0.459970
 C   -7.194977   -3.376602   -0.656522
 C   -5.969852   -2.612367   -0.261873
 C   -5.405650   -1.469681   -0.774142
 N   -5.247357   -2.984185    0.833924
 N   -4.301925   -2.121395    1.032079
 N   -4.384027   -1.190457    0.077324
 C   -3.431155   -0.094319    0.112809
 C   -2.026895   -0.539835   -0.325514
 O   -1.438219   -1.408580    0.613939
 O   -3.932404    0.898038   -0.747398
 C   -3.152617    2.098431   -0.707451
 C   -3.918680    3.126640   -1.536932
 O   -5.261928    3.185675   -1.110503
 C   -1.741210    1.824213   -1.221432
 O   -0.991321    3.015239   -1.088453
 C   -1.105113    0.667618   -0.429990
 O    0.102092    0.249384   -1.060110
 C    1.257185    0.583076   -0.348702
 C    2.489775   -0.019887   -1.008175
 O    2.477560   -1.431640   -0.971984
 O    1.402749    1.983984   -0.377920
 O    1.079028    4.395517    0.984344
 O    4.785153    2.324184    0.850163
 O    4.861280    0.007979   -1.004950
 C    5.795071   -0.752565   -0.300710
 O    6.610219    0.113338    0.458833
 C    7.611398   -0.578139    1.204801
 C    8.333763    0.457202    2.062594
 O    9.125448   -0.144138    3.057207
 C    8.540099   -1.304811    0.230637
 O    9.520746   -1.997626    0.979440
 C    7.746617   -2.267297   -0.641275
 O    8.650689   -2.829512   -1.571276
 C    6.610641   -1.531074   -1.325180
 O    5.788056   -2.485139   -1.966469
 H    3.978956    2.407971   -1.073416
 H    2.313600    2.117162    1.476910
 H    3.101183    4.446329    1.037631
 H    2.430173    4.359632   -0.604648
 H    3.734509   -0.030139    0.736093
 H   -7.493753   -1.588585    2.558540
 H   -6.101043    0.438743    2.932471
 H   -6.239829    2.329106    1.259352
 H   -7.850804    2.168109   -0.614023
 H   -8.664673   -0.113666   -1.114073
 H   -9.725326    0.579783    0.100303
 H   -9.707894   -2.000918   -0.271642
 H   -9.793529   -2.294766    1.465308
 H   -8.955904   -4.218944    0.267269
 H   -7.746705   -3.645359    1.403315
 H   -7.618904   -2.957740   -1.579235
 H   -6.895065   -4.405635   -0.885815
 H   -5.642135   -0.859317   -1.633527
 H   -3.396070    0.270517    1.150193
 H   -2.112367   -1.003029   -1.322621
 H   -2.064979   -2.123713    0.806799
 H   -3.094510    2.448436    0.337284
 H   -3.848197    2.868359   -2.607253
 H   -3.472915    4.116022   -1.405230
 H   -5.546641    2.259743   -1.068762
 H   -1.804659    1.511272   -2.277677
 H   -0.070713    2.778771   -1.291812
 H   -0.898732    1.018903    0.592394
 H    1.163629    0.231265    0.694065
 H    2.540244    0.360632   -2.040382
 H    1.640645   -1.713781   -1.363973
 H    0.360442    4.035712    0.438618
 H    5.588393    1.815849    0.645639
 H    5.277652   -1.456707    0.375782
 H    7.134912   -1.315956    1.872739
 H    7.583665    1.069467    2.574082
 H    8.922273    1.128396    1.411962
 H    9.656439   -0.820849    2.610819
 H    9.012010   -0.553210   -0.421911
 H   10.055911   -2.500569    0.350415
 H    7.319336   -3.053044    0.005569
 H    8.140761   -3.433453   -2.128565
 H    7.036151   -0.814029   -2.047274
 H    4.950834   -2.041551   -2.168487
