90 
5oa2_ligand_ani.xyz
 C    5.104901    1.903336   -0.103252
 C    3.873562    2.598199    0.476192
 C    3.891846    4.117125    0.355534
 C    4.871254    0.386398   -0.160637
 C   -9.274106   -0.320357   -0.816152
 C  -10.354705    0.230456   -0.143487
 C  -11.263452   -0.625531    0.468187
 N  -12.414991   -0.049399    1.177482
 O  -12.522545    1.165092    1.189598
 O  -13.194898   -0.819914    1.711097
 C  -11.119638   -2.006279    0.433346
 C  -10.033576   -2.540625   -0.249836
 C   -9.113450   -1.707949   -0.888482
 C   -7.935175   -2.279914   -1.635670
 O   -6.701674   -1.738206   -1.199657
 C   -6.354772   -2.195189    0.090997
 C   -5.052415   -1.579617    0.477286
 C   -4.494737   -0.411242    0.030413
 N   -4.223578   -2.142484    1.395460
 N   -3.184604   -1.383859    1.530702
 N   -3.328976   -0.328312    0.720031
 C   -2.275522    0.672492    0.685038
 C   -0.947755    0.054714    0.221635
 O   -0.407210   -0.793737    1.204709
 O   -2.729481    1.651102   -0.215935
 C   -1.830697    2.753131   -0.364898
 C   -2.518012    3.703005   -1.337220
 O   -2.770796    3.053729   -2.564281
 C   -0.480384    2.278069   -0.899076
 O    0.392350    3.393132   -0.899207
 C    0.082612    1.139992   -0.037060
 O    1.195025    0.541930   -0.695497
 C    2.425043    0.799340   -0.086901
 C    3.532867    0.020788   -0.781894
 O    3.372600   -1.375213   -0.639014
 O    2.712253    2.171419   -0.231189
 O    2.751692    4.687933    0.958038
 O    6.200712    2.214781    0.723542
 O    5.885831   -0.214337   -0.948458
 C    6.780299   -1.031972   -0.257785
 O    7.748227   -0.220564    0.370850
 C    8.716433   -0.976720    1.097172
 C    9.621868    0.018334    1.817887
 O   10.410861   -0.605457    2.800794
 C    9.473048   -1.880778    0.122171
 O   10.417838   -2.637116    0.855477
 C    8.504928   -2.794881   -0.614941
 O    9.259448   -3.529793   -1.557543
 C    7.414918   -1.972221   -1.274563
 O    6.438792   -2.859588   -1.782180
 H    5.257132    2.257561   -1.138180
 H    3.776474    2.325440    1.538612
 H    3.971121    4.396202   -0.708771
 H    4.766907    4.518846    0.874528
 H    4.901687   -0.008348    0.866222
 H   -8.543213    0.327162   -1.294012
 H  -10.504057    1.302637   -0.084452
 H  -11.846865   -2.635955    0.932291
 H   -9.895408   -3.619043   -0.284274
 H   -7.925113   -3.377250   -1.539953
 H   -7.991991   -2.036736   -2.703158
 H   -7.138880   -1.912149    0.813010
 H   -6.267112   -3.292244    0.120447
 H   -4.823724    0.326455   -0.687552
 H   -2.160698    1.088274    1.696623
 H   -1.142826   -0.475270   -0.724591
 H   -1.085260   -1.451298    1.431259
 H   -1.680032    3.246150    0.609517
 H   -1.868079    4.555209   -1.550806
 H   -3.447415    4.076928   -0.880896
 H   -3.246848    2.244441   -2.334519
 H   -0.629131    1.888009   -1.918181
 H    1.267729    3.048037   -1.140767
 H    0.390802    1.552904    0.934961
 H    2.371922    0.532377    0.983478
 H    3.543104    0.322569   -1.841011
 H    2.481006   -1.585990   -0.946347
 H    1.962501    4.351111    0.503347
 H    6.927050    1.608310    0.499832
 H    6.242671   -1.621055    0.507213
 H    8.210114   -1.600980    1.853294
 H   10.233983    0.562641    1.076929
 H    8.992069    0.754257    2.328507
 H   10.820052   -1.373645    2.374631
 H    9.980302   -1.242209   -0.618337
 H   10.837616   -3.247433    0.233858
 H    8.038156   -3.473712    0.119847
 H    8.638027   -4.100668   -2.030123
 H    7.864468   -1.363739   -2.077301
 H    5.643531   -2.333560   -1.954076
