35 
5oae_ligand_xtb.xyz
 C    3.242929    1.301907    0.602571
 C    4.527452    0.868897    0.334708
 C    2.137998    0.482730    0.385136
 C    4.704615   -0.408143   -0.163979
 C    2.354796   -0.795761   -0.113484
 C    3.632795   -1.248213   -0.393280
 C    0.768907    1.015848    0.719633
 C   -0.396080    0.435184   -0.097386
 C   -1.462766    1.502092   -0.364157
 C   -1.071372   -0.739330    0.616457
 C   -2.624859    0.909516   -1.160785
 C   -2.233819   -1.275228   -0.224832
 N   -3.193632   -0.225562   -0.463641
 C   -4.450819   -0.141517    0.035167
 O   -5.146679    0.838230   -0.153382
 C   -4.960579   -1.336523    0.816137
 F    5.954236   -0.844103   -0.434151
 H    3.094889    2.299350    0.990033
 H    5.382305    1.504570    0.502761
 H    1.525598   -1.460574   -0.294258
 H    3.801989   -2.239502   -0.783407
 H    0.791441    2.099143    0.580784
 H    0.581904    0.840619    1.783814
 H   -0.013518    0.093140   -1.065553
 H   -1.034066    2.333721   -0.925349
 H   -1.841053    1.887844    0.584852
 H   -1.461266   -0.396378    1.577963
 H   -0.361226   -1.543663    0.810836
 H   -2.272293    0.579117   -2.145060
 H   -3.419458    1.645242   -1.293455
 H   -2.702599   -2.120715    0.274112
 H   -1.850898   -1.619509   -1.194714
 H   -5.984831   -1.126064    1.111645
 H   -4.948143   -2.234847    0.203192
 H   -4.363231   -1.500225    1.710275
