78 
5ody_ligand_ani.xyz
 C   -1.210073   -2.792834   -1.857524
 C    0.864901   -3.771515   -0.801854
 C   -1.099327   -3.504275    0.539809
 C   -2.031725    0.656740    2.745645
 C   -3.335600    1.376567    2.454343
 C   -0.790304    1.294610    2.136756
 C    0.438759    0.433857    2.495691
 C    2.760691    0.337101    1.447887
 C   -4.932488   -0.483895   -1.964692
 C   -4.806299    1.771503   -1.142452
 C   -3.450485    1.865080   -1.479263
 C   -2.805059    0.741146   -2.084892
 C   -3.509554   -0.392563   -2.333074
 C   -2.931955   -1.585973   -3.039966
 C    0.319662   -2.815740   -1.857644
 C    2.382235   -3.700900   -0.634740
 C   -1.150416   -1.518009    2.639821
 C    3.521004    1.324694    0.868158
 C    4.829651    1.207120    0.220179
 C    5.307418   -0.056309   -0.144076
 C    6.547582   -0.154067   -0.746455
 C    7.319285    0.971005   -0.990666
 C    6.827230    2.216508   -0.625194
 C    5.590922    2.349359   -0.026639
 C    0.202835   -1.030778    2.086842
 C   -1.761263   -2.541161   -0.454523
 C   -2.813031    3.082725   -1.195056
 C   -3.487599    4.134108   -0.613396
 C   -4.833093    4.011747   -0.285919
 C   -5.496998    2.823212   -0.552172
 F    7.035241   -1.346206   -1.108763
 F    8.514638    0.860187   -1.569409
 F    7.583646    3.291234   -0.870422
 F   -1.510439    3.224011   -1.487062
 F   -2.828766    5.278468   -0.369460
 N    1.630221    0.975410    1.841116
 N    2.835188    2.497952    0.972530
 N    1.700627    2.276373    1.558594
 O   -5.629663   -1.448132   -2.158948
 O   -5.504295    0.613495   -1.368499
 O   -1.547358   -1.744121   -2.758580
 O    0.798287   -1.508486   -1.576004
 O    2.796919   -2.510608    0.006432
 O    0.308259   -3.471759    0.474085
 O   -2.194189   -0.664825    2.232709
 O   -4.410969    0.679563    3.039101
 O   -0.978891    1.359642    0.742723
 O    1.243194   -1.833475    2.597996
 O   -3.150955   -2.775409   -0.451044
 S   -1.617486   -3.233896    2.259534
 H   -1.602987   -3.752511   -2.223247
 H    0.583650   -4.799016   -1.083050
 H   -1.452095   -4.521922    0.312198
 H   -1.916203    0.592903    3.842061
 H   -3.325486    2.380620    2.893482
 H   -3.462888    1.481726    1.365944
 H   -0.658962    2.297933    2.567944
 H    0.591591    0.470902    3.580632
 H    2.898090   -0.723954    1.599154
 H   -1.757485    0.823461   -2.348885
 H   -3.510187   -2.470931   -2.764314
 H   -3.017703   -1.460578   -4.130243
 H    0.670312   -3.136591   -2.849408
 H    2.705231   -4.538126   -0.008232
 H    2.865267   -3.804899   -1.618112
 H   -1.076849   -1.512885    3.739786
 H    4.736486   -0.969076    0.019261
 H    5.224330    3.334505    0.241807
 H    0.191513   -1.049870    0.989271
 H   -1.555079   -1.492455   -0.202812
 H   -5.336042    4.857509    0.169728
 H   -6.545483    2.689086   -0.304608
 H    0.253781   -0.912795   -2.112605
 H    2.309243   -1.791011   -0.429609
 H   -4.329451   -0.230322    2.718847
 H   -0.336787    2.000138    0.401467
 H    1.262231   -2.635512    2.049336
 H   -3.483539   -2.462840    0.402676
