71 
5ofi_ligand_ani.xyz
 C    2.045963   -2.594997   -0.737942
 C    1.436982   -1.999536    3.038575
 C    0.704412    2.312080    0.174164
 C   -0.403558    1.490037    0.378005
 C   -0.387093    0.613620    1.608332
 C   -1.243763    2.186452   -1.768906
 C   -2.628089    0.609017   -0.468334
 C    3.362262    3.461884   -0.940205
 C    4.897828    1.723415   -0.079916
 C    4.717499    0.496994    0.793176
 C    4.090361   -1.788510    0.516597
 C    3.571854   -2.713259   -0.586793
 C    1.365978   -2.711081    0.622629
 C    2.007878   -1.787500    1.647937
 C    0.894085    2.995989   -1.022773
 C   -0.117334    2.959482   -1.983487
 C   -1.415601    1.419290   -0.602594
 C   -2.631789   -0.757591   -0.893684
 C   -1.515156   -1.427459   -1.451030
 C   -1.578760   -2.737578   -1.865455
 C   -2.784590   -3.443548   -1.732249
 C   -3.896550   -2.831614   -1.180320
 C   -3.819065   -1.511188   -0.773442
 C   -3.833737    1.158072   -0.000922
 C   -5.005139    0.335743    0.109126
 C   -6.200807    0.778994    0.568455
 C   -3.997021    2.526176    0.429224
 C   -5.160939    3.015639    0.890430
 C   -6.363008    2.162971    0.992419
 N    3.591708    2.211212   -0.488012
 N    2.065284    3.749637   -1.279160
 O    3.993680   -0.470519    0.037656
 O    4.255125   -2.452571   -1.791750
 O    1.540288   -3.576508   -1.615762
 O    1.480712   -4.085374    0.989838
 O    1.714035   -0.900472    3.900425
 O    3.423339   -1.977439    1.733713
 O   -0.960144   -0.445577    1.722752
 O    0.432517    1.115180    2.552649
 O   -2.912760   -4.735091   -2.128592
 O   -4.959608   -0.982726   -0.252685
 O   -7.424248    2.607098    1.412296
 S    4.549184    4.629120   -1.111666
 H    1.809805   -1.616661   -1.179243
 H    0.349617   -2.081398    2.987694
 H    1.840203   -2.926998    3.463320
 H    1.427130    2.417198    0.973454
 H   -2.017529    2.163150   -2.531900
 H    5.518449    1.487239   -0.954089
 H    5.406480    2.515989    0.474523
 H    5.695472    0.093690    1.089983
 H    4.163556    0.753307    1.707706
 H    5.150956   -2.017049    0.706384
 H    3.802737   -3.747197   -0.315673
 H    0.304971   -2.427018    0.517551
 H    1.814802   -0.752733    1.338531
 H   -0.005620    3.522842   -2.905894
 H   -0.584266   -0.872228   -1.555902
 H   -0.703328   -3.226626   -2.283854
 H   -4.828685   -3.375152   -1.071827
 H   -7.051133    0.110236    0.628122
 H   -3.124761    3.173762    0.373654
 H   -5.265638    4.047544    1.208481
 H    2.886671    1.504194   -0.665325
 H    1.959362    4.657374   -1.709507
 H    4.221055   -1.492615   -1.913060
 H    1.488412   -4.391241   -1.089650
 H    0.789809   -4.295328    1.629249
 H    2.677254   -0.814842    3.946630
 H    0.619775    0.412933    3.217856
 H   -2.073555   -5.034206   -2.500786
