71 
5ofi_ligand_xtb.xyz
 C    2.191621   -2.681971   -0.684397
 C    0.906826   -2.049961    2.930862
 C    0.601497    2.493018    0.153874
 C   -0.513072    1.678559    0.296291
 C   -0.588250    0.774899    1.473872
 C   -1.385877    2.544527   -1.764087
 C   -2.613400    0.695319   -0.623744
 C    3.208384    3.615133   -0.802201
 C    4.647895    1.767804   -0.038216
 C    4.393749    0.625843    0.941894
 C    3.911135   -1.711144    0.856720
 C    3.658025   -2.781168   -0.226090
 C    1.292280   -2.868337    0.552464
 C    1.668245   -1.827374    1.619538
 C    0.768942    3.280145   -0.981439
 C   -0.266648    3.340769   -1.915256
 C   -1.504256    1.666164   -0.691322
 C   -2.382366   -0.617412   -1.149701
 C   -1.182795   -1.000111   -1.761804
 C   -0.986825   -2.287548   -2.194651
 C   -1.990532   -3.247555   -2.015885
 C   -3.199378   -2.887723   -1.437800
 C   -3.401493   -1.580766   -1.010367
 C   -3.830772    0.992815   -0.068961
 C   -4.850638   -0.027908    0.000148
 C   -6.072173    0.223095    0.528854
 C   -4.156886    2.278513    0.475221
 C   -5.366449    2.532540    1.000181
 C   -6.428254    1.521834    1.059619
 N    3.397852    2.318157   -0.490777
 N    1.947807    3.994810   -1.177271
 O    3.808449   -0.459513    0.230813
 O    4.569862   -2.653120   -1.273794
 O    1.877382   -3.617525   -1.675441
 O    1.475963   -4.201591    0.973569
 O    1.133024   -1.005357    3.847538
 O    3.052407   -1.852098    1.950916
 O   -1.272105   -0.221627    1.525860
 O    0.233210    1.146351    2.448484
 O   -1.808641   -4.529982   -2.393350
 O   -4.591888   -1.285620   -0.460583
 O   -7.532296    1.771551    1.531092
 S    4.423132    4.729243   -0.792683
 H    2.013520   -1.696140   -1.126483
 H   -0.167549   -2.060888    2.732727
 H    1.224145   -3.003578    3.369187
 H    1.339229    2.511824    0.939633
 H   -2.170279    2.575573   -2.505212
 H    5.235069    1.389429   -0.884324
 H    5.213443    2.567160    0.446859
 H    5.344167    0.304371    1.384643
 H    3.723136    0.952491    1.746711
 H    4.920512   -1.842069    1.277699
 H    3.825611   -3.770272    0.211935
 H    0.244396   -2.694843    0.264296
 H    1.419480   -0.839784    1.205300
 H   -0.177760    3.993790   -2.770384
 H   -0.403501   -0.264160   -1.891479
 H   -0.052411   -2.578003   -2.652172
 H   -3.978699   -3.620500   -1.312246
 H   -6.813810   -0.558999    0.571505
 H   -3.389259    3.040119    0.441279
 H   -5.610354    3.503783    1.404895
 H    2.673788    1.647950   -0.704765
 H    1.894360    4.895476   -1.631857
 H    4.466693   -1.774688   -1.661339
 H    2.025362   -4.494357   -1.296417
 H    0.812622   -4.426129    1.633227
 H    2.087095   -0.939376    3.982427
 H    0.296072    0.460628    3.156015
 H   -0.918950   -4.641209   -2.754913
