66 
5ofx_ligand_xtb.xyz
 O   -0.162709   -2.129639   -1.540208
 C    0.096817   -2.245714   -0.165978
 C    1.527101   -2.726066    0.122825
 C    1.973989   -2.397376    1.555810
 O    1.895399   -3.545602    2.349257
 C    3.401302   -1.864152    1.367590
 O    3.747203   -0.933314    2.341849
 O    2.465969   -2.108889   -0.771971
 C    3.357128   -1.299201   -0.070592
 C    4.768346   -1.313357   -0.691091
 O    5.597913   -0.445833    0.030371
 O    2.881976    0.038029    0.033562
 C    2.650854    0.723845   -1.166729
 C    3.156777    2.165114   -0.994288
 O    4.517786    2.132880   -0.647172
 C    2.312377    2.848470    0.079853
 O    2.773729    4.169711    0.226118
 C    0.837174    2.799761   -0.339163
 O    0.085404    3.380253    0.696208
 C    0.440771    1.338686   -0.592666
 O    1.300787    0.712256   -1.531611
 C   -0.969620    1.207435   -1.168019
 O   -1.916750    1.561713   -0.170922
 C   -3.101887    0.833340   -0.234672
 O   -2.811019   -0.514890    0.055925
 C   -3.894107   -1.393963   -0.223517
 C   -3.853620   -1.928462   -1.669504
 O   -2.938285   -2.969891   -1.832453
 C   -5.242215   -0.729077    0.106738
 O   -5.757362   -0.073723   -1.028129
 C   -5.042477    0.272658    1.253075
 O   -6.308150    0.784342    1.593936
 C   -4.075305    1.402413    0.819825
 O   -3.407659    1.946584    1.926385
 H    0.588585   -1.659985   -1.931376
 H   -0.072968   -1.280114    0.327850
 H   -0.612821   -2.970125    0.238288
 H    1.598701   -3.806250   -0.044325
 H    1.363434   -1.586437    1.979832
 H    2.250889   -3.335761    3.221101
 H    4.093367   -2.722916    1.373868
 H    4.552048   -0.486562    2.041170
 H    5.184542   -2.318499   -0.601344
 H    4.730931   -1.054759   -1.755559
 H    5.294891    0.467920   -0.126868
 H    3.161666    0.241771   -2.007143
 H    3.022460    2.699792   -1.947177
 H    4.726515    2.996917   -0.265957
 H    2.428075    2.298548    1.026774
 H    2.111157    4.642025    0.745253
 H    0.716227    3.376608   -1.272829
 H   -0.837467    3.104846    0.604748
 H    0.491725    0.813292    0.372642
 H   -1.082904    1.865258   -2.039529
 H   -1.114324    0.170964   -1.482446
 H   -3.558892    0.909865   -1.236291
 H   -3.734178   -2.240416    0.453162
 H   -4.835848   -2.339939   -1.910605
 H   -3.651667   -1.097910   -2.356960
 H   -2.031730   -2.636235   -1.738118
 H   -5.951426   -1.501598    0.437540
 H   -6.550401    0.396949   -0.738932
 H   -4.595589   -0.254604    2.110230
 H   -6.187622    1.468282    2.262806
 H   -4.654752    2.220591    0.378939
 H   -2.616924    1.420467    2.095134
