49 
5ogb_ligand_ani.xyz
 C    1.240739   -1.695370   -0.096362
 C    6.686032   -1.410854    1.328138
 C    0.522929   -0.491781   -0.103925
 C    1.251046    0.698030   -0.119122
 C    3.152774    2.838123    1.164824
 C    3.348367    2.085120   -0.172480
 C    4.817267    1.881785   -0.378230
 C    5.414319    0.700701   -0.198848
 C    2.822259    2.950717   -1.338144
 C    5.499965   -1.684802    0.399724
 C    5.948701   -2.410934   -0.873091
 N    4.739423   -0.463930    0.098595
 C    2.619857   -1.689582   -0.056520
 C    2.642242    0.735001   -0.117155
 C    3.346620   -0.480642   -0.020711
 C   -0.911862   -0.469991   -0.098547
 C   -2.122048   -0.415243   -0.076834
 C   -3.555844   -0.311652   -0.030839
 C   -4.363169   -1.454770   -0.135264
 C   -5.744703   -1.343351   -0.088897
 C   -6.345153   -0.091871    0.065423
 C   -5.545976    1.043770    0.196348
 C   -4.166263    0.941084    0.137867
 C   -7.828521    0.091122    0.156900
 O   -8.344124    1.022928    0.716984
 O   -8.596401   -0.854938   -0.429419
 H    0.706791   -2.641371   -0.103419
 H    7.068561   -2.357619    1.722432
 H    7.514427   -0.920427    0.805394
 H    6.383527   -0.782798    2.171560
 H    0.688828    1.626903   -0.133005
 H    3.564624    2.252807    1.993003
 H    3.665899    3.805795    1.134364
 H    2.090207    3.015701    1.363976
 H    5.424625    2.758807   -0.587518
 H    6.492999    0.602537   -0.265915
 H    3.401306    3.878378   -1.396437
 H    2.927058    2.415805   -2.288128
 H    1.771107    3.224421   -1.207396
 H    4.818839   -2.334284    0.956320
 H    5.094282   -2.673921   -1.505856
 H    6.630265   -1.784171   -1.460580
 H    6.477743   -3.331867   -0.607229
 H    3.130714   -2.647289   -0.064458
 H   -3.901115   -2.429545   -0.260562
 H   -6.345500   -2.250917   -0.134752
 H   -6.030381    2.003641    0.347794
 H   -3.552710    1.831569    0.230244
 H   -8.051323   -1.446215   -0.966057
