13 
5oh2_ligand_xtb.xyz
 O    2.101868   -0.004042   -0.060689
 C    0.896383    0.004276    0.001557
 C   -0.015972    1.215018    0.152955
 C   -1.403793    0.682856   -0.201044
 C   -1.309411   -0.814837    0.119035
 N    0.098370   -1.084426   -0.040212
 H    0.313552    2.034951   -0.480855
 H    0.039248    1.544456    1.192361
 H   -1.592493    0.820288   -1.266045
 H   -2.200053    1.170919    0.356743
 H   -1.905057   -1.427911   -0.561385
 H   -1.632180   -1.023762    1.148014
 H    0.470211   -2.019508   -0.056852
