21 
5oh3_ligand_ani.xyz
 O   -0.709195    2.015776    0.329851
 C   -0.022508    1.034042    0.172081
 N    1.308526    1.048469   -0.217077
 C   -0.451526   -0.431324    0.338021
 C   -1.265055   -0.853691   -0.907555
 C   -2.611204   -0.154138   -1.076339
 C   -1.259464   -0.586452    1.624048
 C    0.899028   -1.171524    0.369255
 C    1.930644   -0.192371   -0.169035
 O    3.078022   -0.409888   -0.472406
 H    1.801195    1.900598   -0.450081
 H   -1.424785   -1.939752   -0.849794
 H   -0.637869   -0.682687   -1.792088
 H   -3.066259   -0.436569   -2.030825
 H   -3.310944   -0.438668   -0.282920
 H   -2.500413    0.934068   -1.056824
 H   -2.109476    0.102480    1.629502
 H   -1.635895   -1.611225    1.729596
 H   -0.644045   -0.356484    2.500071
 H    0.908171   -2.084299   -0.227602
 H    1.190528   -1.441101    1.388090
