10 
5oh9_ligand_ani.xyz
 O   -2.034033   -1.254804    0.000294
 C   -1.028558   -0.599649    0.000138
 N    0.264043   -1.110608   -0.000346
 S   -0.961083    1.183284   -0.000371
 C    0.847989    1.201994    0.000685
 C    1.338169   -0.241251   -0.000209
 O    2.496871   -0.572846   -0.000238
 H    0.397729   -2.114159    0.000869
 H    1.240935    1.703884    0.887388
 H    1.242051    1.706622   -0.884033
