11 
5oha_ligand_xtb.xyz
 O   -2.625050   -0.879160   -0.000137
 C   -1.583160   -0.283774    0.000174
 C   -1.297756    1.208928    0.000576
 N    0.138999    1.335383    0.000309
 C    0.620919    0.160263   -0.000212
 N   -0.324225   -0.854822   -0.000452
 S    2.328101   -0.180024   -0.000807
 H   -1.718955    1.697581    0.881993
 H   -1.719632    1.696702   -0.881053
 H   -0.148459   -1.846846   -0.004270
 H    2.194385   -1.510203    0.015112
