59 
5om3_ligand_xtb.xyz
 C   -1.569206    0.914034    1.516921
 O   -0.832633    0.888048    2.466840
 C   -3.005547    0.442768    1.585747
 O   -3.591751   -1.889204    1.550710
 C   -3.053333   -0.989399    2.169071
 N   -2.495541   -1.120885    3.368447
 C   -3.688460    0.508327    0.214320
 O   -4.975207   -0.041541    0.164532
 C   -2.817983   -0.232020   -0.830709
 N   -3.563386   -0.110614   -2.121347
 C   -3.369372   -1.279017   -2.994022
 C   -3.329062    1.146846   -2.854636
 C   -1.350613    0.216928   -0.857486
 C   -0.439774   -0.969155   -0.486936
 O   -0.748637   -1.963541   -1.438521
 C    1.054663   -0.605973   -0.510233
 C    1.930662   -1.508360    0.390564
 C    1.618507   -2.999119    0.277199
 C    3.376123   -1.179128    0.075665
 C    4.353988   -2.138595   -0.063310
 C    5.678646   -1.775245   -0.306360
 C    6.047370   -0.455871   -0.383430
 C    5.086646    0.548438   -0.225075
 O    5.491569    1.811514   -0.284578
 C    3.732284    0.183784   -0.033026
 C    2.722627    1.218052    0.055054
 O    3.013306    2.420550    0.231691
 C    1.325683    0.813324   -0.090447
 C    0.360854    1.725219    0.157754
 O    0.576090    2.997869    0.469344
 C   -1.113293    1.380796    0.114555
 O   -1.859845    2.506130   -0.289021
 H   -3.539145    1.081262    2.298265
 H   -1.949957   -0.376135    3.777394
 H   -2.487217   -2.029509    3.806450
 H   -3.806567    1.559456   -0.064778
 H   -4.950110   -0.904721    0.619691
 H   -2.849905   -1.296314   -0.571078
 H   -4.545620   -0.109278   -1.780372
 H   -3.874427   -1.122564   -3.944559
 H   -2.304366   -1.433684   -3.160232
 H   -3.773013   -2.171815   -2.521452
 H   -4.185342    1.368252   -3.488028
 H   -3.175395    1.970260   -2.159251
 H   -2.449024    1.051262   -3.487266
 H   -1.065271    0.550062   -1.856560
 H   -0.713158   -1.310548    0.526039
 H   -0.159065   -2.716334   -1.314398
 H    1.395070   -0.727383   -1.549187
 H    1.739919   -1.206713    1.430150
 H    1.818211   -3.369320   -0.727129
 H    0.586204   -3.205652    0.552416
 H    2.239127   -3.554676    0.975039
 H    4.121493   -3.186402    0.016745
 H    6.423901   -2.547237   -0.419435
 H    7.069964   -0.157961   -0.546613
 H    4.734761    2.409254   -0.095533
 H    1.574023    3.126394    0.480799
 H   -1.354179    3.292116   -0.021862
