69 
5om7_ligand_dft.xyz
 C    6.056115    1.459380    1.050902
 C    7.206600    0.707245    0.852725
 C    7.146064   -0.518537    0.209260
 C    5.922876   -1.028319   -0.251828
 O    5.825092   -2.207574   -0.876787
 C    4.737394   -0.275496   -0.056823
 C    3.417887   -0.755879   -0.523765
 O    3.275958   -1.855212   -1.071885
 C    2.238371    0.112778   -0.326356
 C    0.991772   -0.305808   -0.794309
 O    0.792201   -1.480263   -1.410520
 C   -0.140866    0.532764   -0.638294
 C   -1.452123    0.021286   -1.176098
 O   -1.828586   -1.060175   -0.322881
 C   -2.524491    1.104800   -1.257935
 C   -2.577346    1.959465    0.009423
 O   -2.874839    1.137743    1.120158
 C   -3.667911    3.033534   -0.070862
 O   -4.361176    3.234918    0.909615
 C   -3.904405    3.838123   -1.330185
 O   -4.803760    4.874543   -1.117726
 C   -1.221051    2.664351    0.207766
 C   -0.043540    1.744099    0.009862
 C    1.216620    2.174735    0.497881
 O    1.246388    3.363462    1.105869
 C    2.344509    1.368724    0.325600
 C    3.642247    1.827181    0.821903
 O    3.759031    2.905928    1.412016
 C    4.837906    0.971181    0.596653
 C    6.999305   -2.956614   -1.132241
 C   -2.437197   -2.153996   -0.917509
 C   -2.251533   -3.303966    0.074629
 C   -2.970823   -2.907442    1.355692
 N   -2.943540   -4.072206    2.326288
 C   -4.447257   -2.605522    1.089769
 O   -5.011366   -3.876732    0.811226
 C   -4.564337   -1.570207   -0.041603
 O   -3.806150   -1.949522   -1.180837
 C   -5.996162   -1.375684   -0.507216
 H    6.084970    2.421561    1.547647
 H    8.164982    1.078937    1.201116
 H    8.059607   -1.081514    0.064677
 H    1.686655   -1.909912   -1.461347
 H   -1.285952   -0.382747   -2.182572
 H   -2.278441    1.749734   -2.110335
 H   -3.491796    0.639100   -1.466033
 H   -3.408793    1.702108    1.707355
 H   -2.950542    4.231983   -1.708521
 H   -4.272833    3.132176   -2.095935
 H   -5.190363    4.735843   -0.238753
 H   -1.187413    3.090917    1.214614
 H   -1.117681    3.512968   -0.481529
 H    2.179852    3.519814    1.389071
 H    6.663628   -3.846041   -1.664299
 H    7.699322   -2.397437   -1.763479
 H    7.494794   -3.255255   -0.201215
 H   -1.985902   -2.393510   -1.885480
 H   -2.687446   -4.213215   -0.349489
 H   -1.180246   -3.446804    0.243909
 H   -2.477401   -2.056900    1.829685
 H   -3.649647   -4.744889    1.986933
 H   -2.024661   -4.521114    2.364587
 H   -3.206745   -3.791802    3.275238
 H   -4.911030   -2.170871    1.989859
 H   -5.939349   -3.785450    0.563117
 H   -4.171861   -0.630448    0.371056
 H   -6.650451   -1.107678    0.328854
 H   -6.036769   -0.567860   -1.241269
 H   -6.377780   -2.276251   -0.999699
