69 
5one_ligand_xtb.xyz
 C   -5.357692    1.710121    0.283791
 C   -3.226435    1.272780    1.406314
 C   -4.466669   -0.501676    0.376433
 N   -3.268971   -1.006894    0.111744
 C   -3.195498   -2.221464   -0.427247
 C   -0.696280   -2.379687   -0.504674
 N   -2.001501   -2.808665   -0.691873
 C    0.335273   -3.236522   -0.891680
 C    1.657641   -2.876767   -0.741828
 C    1.984717   -1.637717   -0.196195
 C    4.464626   -1.861188   -0.311662
 N    3.302370   -1.200350   -0.035949
 C    5.693318   -1.047867   -0.081325
 C    5.746477    0.335032   -0.233978
 C    6.928533    1.025181   -0.048487
 N    9.314607    0.974804    0.497270
 O   -8.546150    0.475036    1.285471
 C   -7.449379    0.310263    0.778277
 C   -6.728978    1.464160    0.176383
 C   -7.551809    2.413873   -0.421954
 N   -6.896099   -0.931774    0.702754
 C   -7.687839   -2.030824    1.227847
 C   -5.638373   -1.261301    0.176193
 N   -4.486390    0.781760    0.887471
 C   -4.863551    2.914687   -0.214449
 C   -5.697034    3.839746   -0.812700
 C   -7.059024    3.602160   -0.934904
 C   -7.968566    4.588711   -1.598959
 C   -5.440237   -2.490536   -0.444622
 N   -4.251663   -2.964532   -0.769777
 C   -0.367061   -1.144135    0.047286
 C    0.956100   -0.782968    0.196282
 O    4.526682   -3.011805   -0.698249
 C    6.863927   -1.729970    0.245009
 C    8.044359   -1.048666    0.441234
 C    8.089984    0.339110    0.298652
 C    9.622508    2.304630    0.417754
 O    8.822708    3.181167    0.187504
 C   11.103996    2.567857    0.632032
 C   11.907332    2.145601   -0.598671
 H   -2.816054    0.507007    2.062615
 H   -2.493205    1.481225    0.621977
 H   -3.419086    2.176171    1.982668
 H   -2.110480   -3.722687   -1.111993
 H    0.094297   -4.199513   -1.318581
 H    2.442748   -3.548356   -1.044402
 H    3.389140   -0.272817    0.355151
 H    4.871512    0.892019   -0.538242
 H    6.962490    2.093856   -0.176926
 H   10.077724    0.347284    0.712331
 H   -8.610642    2.204196   -0.460035
 H   -8.378807   -1.617373    1.961622
 H   -8.270951   -2.511752    0.439593
 H   -7.035063   -2.764174    1.699278
 H   -3.811399    3.137000   -0.145496
 H   -5.276275    4.761496   -1.188133
 H   -8.106601    4.321624   -2.647206
 H   -8.945820    4.590898   -1.122343
 H   -7.550433    5.591544   -1.557420
 H   -6.272688   -3.136959   -0.684068
 H   -1.156927   -0.480454    0.349449
 H    1.197295    0.180880    0.624004
 H    6.824080   -2.804418    0.339076
 H    8.943690   -1.590452    0.700043
 H   11.454701    2.030179    1.515671
 H   11.230655    3.637351    0.800952
 H   11.803086    1.080144   -0.794995
 H   11.562543    2.689667   -1.474602
 H   12.961888    2.365036   -0.450179
