55 
5op6_ligand_ani.xyz
 O   -2.470233    1.377313    0.162634
 C   -1.444765    0.721047    0.140303
 N   -1.486892   -0.676912    0.169508
 C   -2.808250   -1.279395   -0.156489
 C   -2.720493   -2.482617   -1.096704
 C   -4.126692   -2.954374   -1.480579
 C   -4.958298   -3.274482   -0.234664
 C   -5.032687   -2.068384    0.706250
 C   -3.630981   -1.588242    1.094795
 C   -0.344500   -1.399622    0.429591
 O   -0.503789   -2.632586    0.923001
 C    0.897607   -0.880970    0.189375
 C    2.068469   -1.795470    0.068002
 N    3.287587   -1.222273    0.250795
 C    4.467226   -2.025293    0.155598
 C    5.665270   -1.132826   -0.111259
 O    6.833544   -1.777805   -0.278851
 O    5.602814    0.064837   -0.163671
 O    1.946970   -2.991660   -0.166897
 C    1.018173    0.554038    0.036556
 N   -0.183003    1.293192    0.070558
 C   -0.081918    2.764505   -0.023362
 C   -0.625400    3.470316    1.222096
 C   -0.390761    4.981405    1.124897
 C   -1.016321    5.555407   -0.150979
 C   -0.498491    4.830586   -1.398005
 C   -0.732454    3.319797   -1.294338
 O    2.083377    1.151552   -0.105260
 H   -3.326880   -0.477155   -0.686230
 H   -2.183030   -3.304868   -0.612878
 H   -2.144331   -2.202738   -1.986023
 H   -4.061461   -3.831345   -2.135322
 H   -4.630313   -2.167679   -2.062042
 H   -4.493407   -4.116582    0.299380
 H   -5.965712   -3.602808   -0.518670
 H   -5.606710   -2.316613    1.606125
 H   -5.570599   -1.249229    0.207085
 H   -3.681445   -0.691193    1.719932
 H   -3.144140   -2.373189    1.692198
 H   -1.343542   -2.689014    1.402767
 H    3.377415   -0.207468    0.208485
 H    4.352171   -2.766549   -0.647227
 H    4.636040   -2.601854    1.078250
 H    6.700292   -2.733336   -0.204384
 H    0.992619    2.949488   -0.081187
 H   -0.135778    3.050053    2.107718
 H   -1.697468    3.260278    1.307614
 H    0.691401    5.183377    1.123135
 H   -0.798520    5.482471    2.011052
 H   -0.823001    6.632833   -0.223648
 H   -2.108885    5.435639   -0.097136
 H    0.578666    5.026412   -1.512756
 H   -0.983421    5.224212   -2.299367
 H   -1.807075    3.107844   -1.264969
 H   -0.316591    2.795201   -2.162081
