22 
5opc_ligand_xtb.xyz
 O    0.935023    2.077790    0.140637
 C    1.740116    0.982475    0.103906
 C    1.208766   -0.299993   -0.123828
 C   -0.248939   -0.594415   -0.276021
 N   -1.019583    0.405545   -0.743020
 C   -2.421665    0.205785   -1.053178
 C   -3.311997    0.094799    0.204909
 O   -4.188333    0.880657    0.431780
 O   -3.039482   -0.933787    0.983006
 O   -0.712263   -1.696084   -0.008270
 N    1.987219   -1.370553   -0.171806
 C    3.286553   -1.254737   -0.009535
 C    3.906417   -0.036442    0.236351
 C    3.114469    1.094322    0.296015
 H    1.446120    2.858148    0.394331
 H   -0.644425    1.337141   -0.818405
 H   -2.525291   -0.730306   -1.615621
 H   -2.773325    1.039345   -1.660053
 H   -2.250348   -1.450866    0.658253
 H    3.850477   -2.174173   -0.072650
 H    4.973140    0.028698    0.379729
 H    3.548320    2.067699    0.489262
