49 
5oq4_ligand_xtb.xyz
 C    2.252439   -3.346572    0.713194
 C    3.026273   -3.929607   -0.475306
 O    4.405925   -3.652908   -0.370221
 C    4.649730   -2.265143   -0.317895
 C    3.935969   -1.621730    0.877788
 N    2.528727   -1.932413    0.805338
 C    1.602793   -1.004930    0.509112
 N    0.348586   -1.433145    0.296814
 N    1.983027    0.272387    0.476100
 C    1.008270    1.151095    0.229356
 N    1.323372    2.452453    0.216892
 C    0.382436    3.482525   -0.153817
 C    0.876733    4.169094   -1.431831
 O    2.189175    4.664318   -1.274233
 C    3.089996    3.631072   -0.948834
 C    2.679615    2.925507    0.349811
 N   -0.274708    0.819133    0.006613
 C   -0.534844   -0.474163    0.064022
 C   -1.908694   -0.914049   -0.207310
 C   -2.109462   -2.101718   -0.909532
 N   -3.285386   -2.575711   -1.257059
 C   -4.375921   -1.884978   -0.921739
 N   -5.561700   -2.375164   -1.353946
 C   -4.301922   -0.692731   -0.181799
 C   -3.058494   -0.212715    0.177556
 C   -2.991481    1.037526    1.014872
 F   -2.731783    2.141091    0.294555
 F   -4.170632    1.287556    1.625099
 F   -2.090881    0.982597    2.002153
 H    2.589132   -3.828515    1.637758
 H    1.179097   -3.482690    0.589372
 H    2.629371   -3.504854   -1.410339
 H    2.935840   -5.016418   -0.503796
 H    4.300994   -1.787740   -1.246945
 H    5.731416   -2.149152   -0.234807
 H    4.054854   -0.539603    0.869097
 H    4.339136   -2.036503    1.808326
 H    0.329155    4.217871    0.656833
 H   -0.594186    3.029774   -0.308409
 H    0.253330    5.030751   -1.673508
 H    0.846296    3.451135   -2.265788
 H    4.068619    4.101970   -0.842020
 H    3.126619    2.893831   -1.766141
 H    3.327937    2.075547    0.556252
 H    2.723868    3.640560    1.179478
 H   -1.253455   -2.692224   -1.203649
 H   -5.557515   -3.291960   -1.764946
 H   -6.421850   -2.009433   -0.988499
 H   -5.203832   -0.178500    0.109944
