49 
5oq4_ligand_ani.xyz
 C    2.416285   -3.224923    0.397460
 C    3.567182   -4.064661   -0.135918
 O    4.800533   -3.647197    0.411566
 C    5.080552   -2.307163    0.063833
 C    4.017451   -1.363369    0.606741
 N    2.706033   -1.817338    0.162565
 C    1.683356   -0.931768    0.045184
 N    0.440069   -1.432064   -0.104770
 N    1.987783    0.369469    0.056406
 C    0.946041    1.189574   -0.096523
 N    1.186162    2.522624   -0.149479
 C    0.099104    3.486719   -0.095496
 C    0.437073    4.655552   -1.010529
 O    1.696920    5.206931   -0.685698
 C    2.728943    4.254038   -0.838681
 C    2.515810    3.063352    0.086173
 N   -0.337247    0.797785   -0.223435
 C   -0.526801   -0.517365   -0.200621
 C   -1.914456   -1.023325   -0.336904
 C   -2.121607   -2.175457   -1.096036
 N   -3.312735   -2.705165   -1.359736
 C   -4.380398   -2.104683   -0.831901
 N   -5.611015   -2.630150   -1.144148
 C   -4.286021   -0.964423   -0.018662
 C   -3.043138   -0.419703    0.237293
 C   -2.981048    0.785657    1.153257
 F   -2.834333    1.936329    0.467700
 F   -4.116688    0.908327    1.865285
 F   -1.968899    0.708605    2.031258
 H    2.283542   -3.415811    1.472894
 H    1.484500   -3.480898   -0.108078
 H    3.597562   -3.999122   -1.235064
 H    3.436153   -5.114572    0.143626
 H    5.146684   -2.203981   -1.030642
 H    6.058145   -2.066770    0.492682
 H    4.184728   -0.346711    0.243757
 H    4.064966   -1.344844    1.705857
 H   -0.023108    3.858836    0.932554
 H   -0.832179    3.013251   -0.405323
 H   -0.297889    5.457687   -0.892917
 H    0.424580    4.323181   -2.060409
 H    3.667287    4.763414   -0.599661
 H    2.776796    3.908783   -1.883393
 H    3.257548    2.284017   -0.101219
 H    2.610740    3.385291    1.133204
 H   -1.263343   -2.687545   -1.525173
 H   -5.581860   -3.564235   -1.524563
 H   -6.358127   -2.467744   -0.486697
 H   -5.180405   -0.523886    0.409590
