84 
5oqw_ligand_dft.xyz
 C    0.359354    2.718101    3.670621
 C   -0.867693    1.877596    3.342553
 C   -0.488314    0.591525    2.615909
 N   -1.705243   -0.230780    2.243658
 C   -1.306657   -1.658440    1.848856
 C   -0.432442   -1.588805    0.603314
 C    2.981451   -2.904615    1.311805
 C    4.015487   -2.658222    2.410945
 C    3.111177   -4.330042    0.746246
 C    3.082655   -1.904968    0.178634
 C    4.110851   -0.505890   -1.304933
 C    5.420860    0.089434   -1.766053
 O    5.394985    1.467309   -1.419059
 C    2.721771    1.129608   -2.761519
 C    2.305271    2.763422   -0.899057
 C    1.450273    3.472815   -0.061721
 C    0.110439    3.516926   -0.405402
 C   -0.405792    2.963843   -1.560089
 C    0.476948    2.267698   -2.389498
 C    1.705140   -0.589282   -1.283891
 C    1.828095   -1.485784   -0.242483
 C   -4.407117   -2.241877   -2.424358
 C   -4.622061   -1.840831   -0.957192
 C   -4.433100   -3.042268   -0.042695
 C   -2.984331    1.879600    1.971676
 O   -0.965344   -1.068629   -0.402738
 N    0.842634   -1.928598    0.684422
 C    1.530582   -2.635038    1.810269
 N    4.200883   -1.445590   -0.347278
 C    2.878443   -0.050556   -1.808691
 C    1.822160    2.121053   -2.046611
 F   -0.771519    4.144502    0.466409
 C   -2.551842    0.589216    1.262960
 C   -3.799858   -0.161796    0.748954
 N   -3.628983   -0.717471   -0.626483
 C   -3.685127    0.381720   -1.663818
 C   -3.508231   -0.210557   -3.056179
 O   -4.512536   -1.152706   -3.294850
 N   -1.817985    2.668298    2.473700
 H    0.076588    3.645720    4.176421
 H    1.012960    2.167880    4.352374
 H    0.924877    2.961049    2.765940
 H   -1.424882    1.645503    4.257926
 H    0.138989   -0.014490    3.272879
 H    0.063210    0.792051    1.689956
 H   -2.265581   -0.353254    3.096153
 H   -2.226061   -2.212369    1.650086
 H   -0.828989   -2.085728    2.732155
 H    3.898069   -3.379078    3.225894
 H    3.938894   -1.644648    2.819406
 H    5.020002   -2.774132    1.997534
 H    4.092493   -4.454077    0.280951
 H    2.349457   -4.536038   -0.013707
 H    3.019213   -5.071421    1.546329
 H    5.537416   -0.047176   -2.850552
 H    6.231996   -0.442558   -1.259620
 H    6.242181    1.859752   -1.667311
 H    3.689959    1.580647   -2.979089
 H    2.271300    0.805767   -3.705331
 H    3.361139    2.674541   -0.654460
 H    1.822566    4.009791    0.805260
 H   -1.442786    3.130824   -1.836298
 H    0.104316    1.823729   -3.308552
 H    0.740497   -0.253449   -1.635496
 H   -3.429806   -2.741871   -2.532349
 H   -5.186420   -2.954021   -2.701792
 H   -5.615165   -1.394062   -0.844170
 H   -5.095181   -3.842201   -0.386939
 H   -3.410239   -3.433386   -0.099668
 H   -4.709096   -2.861815    1.000142
 H   -3.646424    1.678176    2.821237
 H   -3.525981    2.511844    1.263807
 H    0.997215   -3.556519    2.053081
 H    1.550641   -1.974873    2.686079
 H   -1.870573    0.817958    0.439254
 H   -4.657772    0.515818    0.715745
 H   -4.076650   -0.971421    1.426296
 H   -2.657872   -1.104472   -0.669899
 H   -4.665361    0.858917   -1.577594
 H   -2.891481    1.100917   -1.440852
 H   -3.614593    0.582654   -3.798602
 H   -2.505327   -0.655322   -3.158962
 H   -2.169747    3.466290    3.019061
 H   -1.310656    3.117710    1.675338
