48 
5or9_ligand_ani.xyz
 C    2.440683   -2.935982    0.591843
 C    5.087460   -0.828430   -0.195248
 C    4.085163    0.123861   -0.397545
 C    2.906968   -0.552824   -0.129856
 C    1.129275    1.092830   -0.252390
 C   -0.398010    1.265948   -0.346044
 C   -0.781176    2.745883   -0.428865
 C   -0.907265    3.157116    1.042303
 C   -1.552359    1.927199    1.694942
 C   -3.213373   -0.627301    0.142935
 C   -3.233786   -1.035125   -1.187307
 C   -4.413117   -0.936160   -1.916053
 C   -5.546162   -0.443393   -1.285594
 C   -5.546741   -0.055800    0.046181
 C   -4.363296   -0.155631    0.768907
 C    4.684864    1.439804   -0.804374
 C    6.135762    1.039751   -1.184206
 C    6.460677   -0.282407   -0.442744
 F   -6.688233   -0.346246   -1.989269
 N    3.283351   -1.823687    0.210542
 N    4.630488   -2.006552    0.174742
 N    1.560910   -0.205483   -0.181494
 N   -1.028166    0.807933    0.899535
 O    1.882126    2.049924   -0.218172
 O   -2.016039   -0.879859    2.458942
 O   -0.818209   -1.625183    0.348574
 S   -1.698910   -0.693922    1.055821
 H    3.109163   -3.748025    0.875999
 H    1.807619   -3.269550   -0.238742
 H    1.805045   -2.676441    1.445865
 H   -0.778236    0.688921   -1.199597
 H   -0.031990    3.323001   -0.972565
 H   -1.742761    2.842664   -0.947201
 H    0.086981    3.329270    1.464742
 H   -1.503733    4.062766    1.180819
 H   -1.283223    1.787398    2.746304
 H   -2.648805    1.973976    1.622128
 H   -2.334730   -1.443475   -1.639624
 H   -4.466838   -1.237432   -2.956658
 H   -6.461414    0.311758    0.498223
 H   -4.335496    0.110503    1.821707
 H    4.676410    2.136243    0.044007
 H    4.144448    1.932931   -1.617414
 H    6.184303    0.854435   -2.261896
 H    6.858678    1.828671   -0.959442
 H    6.979467   -0.094846    0.506207
 H    7.091946   -0.952638   -1.033118
 H    0.857315   -0.941719   -0.108777
