48 
5or9_ligand_xtb.xyz
 C    2.343008   -2.865193    0.174046
 C    5.067739   -0.748955   -0.263713
 C    4.079781    0.249517   -0.311950
 C    2.894340   -0.432894   -0.159038
 C    1.067550    1.184209   -0.288789
 C   -0.476643    1.207573   -0.166681
 C   -0.998026    2.633149    0.009217
 C   -1.005409    2.790747    1.528707
 C   -1.458851    1.413844    2.007869
 C   -3.164657   -0.691921    0.030417
 C   -3.214843   -0.707793   -1.351601
 C   -4.400670   -0.399557   -1.995548
 C   -5.507765   -0.080783   -1.225420
 C   -5.472184   -0.078465    0.160079
 C   -4.280287   -0.390445    0.790852
 C    4.690111    1.598397   -0.471827
 C    6.136571    1.252836   -0.897916
 C    6.434735   -0.181025   -0.400740
 F   -6.659254    0.226117   -1.843579
 N    3.226956   -1.754248   -0.034443
 N    4.554924   -1.948827   -0.094848
 N    1.556402   -0.060510   -0.123226
 N   -0.892967    0.491677    1.034062
 O    1.712240    2.180745   -0.526343
 O   -1.856539   -1.500215    2.170011
 O   -0.750789   -1.736061   -0.024963
 S   -1.605107   -0.986717    0.861198
 H    2.950710   -3.766318    0.127003
 H    1.567606   -2.906440   -0.593125
 H    1.859508   -2.807886    1.152847
 H   -0.882542    0.716698   -1.057288
 H   -0.332693    3.342688   -0.478792
 H   -2.004671    2.730250   -0.399667
 H    0.007101    2.992467    1.876077
 H   -1.666531    3.583026    1.871835
 H   -1.094292    1.154630    3.002272
 H   -2.553304    1.343322    2.006088
 H   -2.335591   -0.989965   -1.908634
 H   -4.478528   -0.406849   -3.070931
 H   -6.363199    0.158615    0.719162
 H   -4.208708   -0.433442    1.866009
 H    4.676924    2.131325    0.482415
 H    4.175668    2.217742   -1.203312
 H    6.198905    1.269722   -1.986942
 H    6.854951    1.973330   -0.509416
 H    6.934754   -0.169575    0.571059
 H    7.061135   -0.740332   -1.094629
 H    0.884299   -0.812428    0.012784
