41 
5orb_ligand_xtb.xyz
 C   -2.723943    3.596910    0.021029
 C   -0.868454    2.338450   -0.776694
 C   -0.388205    1.428460   -1.721729
 C    0.905787    0.965246   -1.648391
 C    1.742192    1.406307   -0.631448
 C    3.227468    0.015179    1.206421
 C    1.822856   -0.528762    1.413437
 C    0.142766   -1.799087    0.185625
 C   -1.084359   -1.341470    0.599161
 C   -1.773851   -0.350757    1.467852
 C   -3.223634   -0.409266    0.931355
 C   -3.409053   -1.788209    0.256180
 C   -2.008520   -2.152638   -0.082443
 C    0.860031   -3.597148   -1.415689
 C    1.287574    2.334216    0.287560
 C   -0.014057    2.797559    0.221746
 N    1.448489   -1.393341    0.433469
 N   -1.418692   -3.036479   -0.857582
 N   -0.101770   -2.820787   -0.690187
 O   -2.168221    2.705693   -0.916946
 O    1.133710   -0.208140    2.351636
 S    3.381974    0.712834   -0.483078
 H   -2.688363    3.185939    1.034954
 H   -2.218377    4.567492    0.001447
 H   -3.762675    3.727481   -0.277905
 H   -1.058623    1.085227   -2.493067
 H    1.272970    0.257107   -2.375807
 H    3.977832   -0.772317    1.276605
 H    3.436545    0.783662    1.949385
 H   -1.345288    0.647717    1.395961
 H   -1.716037   -0.661713    2.513439
 H   -3.351633    0.370009    0.178324
 H   -3.955557   -0.243205    1.720697
 H   -4.060782   -1.741087   -0.615115
 H   -3.826970   -2.519078    0.953144
 H    1.410495   -2.981282   -2.133430
 H    1.566210   -4.078138   -0.734946
 H    0.308574   -4.361047   -1.959237
 H    1.939274    2.690360    1.070440
 H   -0.348502    3.508107    0.960728
 H    2.121635   -1.586683   -0.297626
