23 
5orl_ligand_ani.xyz
 C   -1.712238    2.176807    0.265125
 C   -2.658851   -0.418552    0.009796
 F   -0.466792   -1.218489    0.292071
 C   -1.301356   -0.185603    0.184976
 C   -0.809801    1.115512    0.292072
 N    0.571396    1.349263    0.442623
 C    1.526835    0.823311   -0.397399
 C    2.953707    1.248046   -0.073514
 C    3.974447    0.200890   -0.498580
 S    3.892039   -1.351499    0.442351
 O    1.260499    0.104953   -1.337617
 C   -3.069491    1.943377    0.085492
 C   -3.550624    0.645892   -0.048278
Cl   -3.217375   -2.048018   -0.136505
 H   -1.340611    3.193314    0.364744
 H    0.842820    2.074381    1.090008
 H    3.045977    1.487555    0.992117
 H    3.151986    2.174409   -0.631234
 H    4.988825    0.605685   -0.455881
 H    3.769290   -0.087905   -1.532636
 H    4.332630   -0.853128    1.608511
 H   -3.758159    2.781786    0.052276
 H   -4.608404    0.448055   -0.189135
