22 
5orr_ligand_dft.xyz
 C   -3.745912    0.023646   -0.009851
 C   -0.207777   -1.262273   -0.394700
 C   -1.504227    1.047397    0.461658
 C   -2.243075   -0.031191   -0.011796
 C   -1.591506   -1.191053   -0.430090
 C   -0.116811    0.972249    0.505104
 C    0.549650   -0.177018    0.064374
 C    2.018438   -0.269101    0.084186
 F   -4.200672    1.283336   -0.124869
 F   -4.257952   -0.476173    1.128945
 F   -4.271285   -0.689011   -1.020759
 C    2.927078    0.750165   -0.161142
 N    2.664244    2.066747   -0.445362
 N    2.623044   -1.472138    0.328316
 N    3.887392   -1.486242    0.321160
 S    4.507318    0.101626   -0.024452
 H    0.302445   -2.162006   -0.721472
 H   -2.009640    1.943364    0.805524
 H   -2.168399   -2.034289   -0.794724
 H    0.446311    1.800930    0.924637
 H    1.747755    2.242715   -0.837418
 H    3.395703    2.584406   -0.910417
