20 
5orv_ligand_dft.xyz
 C   -0.100878    0.401244   -0.350804
 C   -0.361674    1.836712   -0.681575
 C   -3.235167    0.508232    0.980885
 C   -1.055963   -0.579494   -0.271123
 C    1.184319   -0.163885   -0.050882
 O   -0.549574    2.555503    0.531173
 S   -2.795421   -0.435302   -0.519261
 S   -0.308892   -2.076645    0.132784
 N    1.231143   -1.449948    0.202896
 S    2.649201    0.821652   -0.037599
 C    3.898233   -0.471248    0.186293
 H   -1.254103    1.897704   -1.319599
 H    0.490677    2.238696   -1.247585
 H   -2.622982    1.409603    1.050630
 H   -4.289817    0.776445    0.881674
 H   -3.099408   -0.108190    1.871762
 H   -0.605309    3.492975    0.310524
 H    3.743234   -0.992888    1.131734
 H    3.859732   -1.189756   -0.634053
 H    4.865146    0.036398    0.193718
