20 
5orv_ligand_ani.xyz
 C   -0.109906    0.404416   -0.211924
 C   -0.423283    1.861513   -0.404555
 C   -3.423119    0.881755   -0.262871
 C   -1.015263   -0.615329   -0.060814
 C    1.222573   -0.130474   -0.085734
 O   -0.883897    2.472676    0.790178
 S   -2.755183   -0.769295    0.011132
 S   -0.171895   -2.099783    0.145701
 N    1.350459   -1.418804    0.084805
 S    2.637795    0.919940   -0.129418
 C    3.962169   -0.301469    0.014793
 H   -1.222591    1.985890   -1.142364
 H    0.453575    2.395734   -0.790157
 H   -2.938612    1.621679    0.380088
 H   -3.350579    1.184182   -1.311044
 H   -4.482166    0.808511   -0.002811
 H   -0.194247    2.337017    1.454337
 H    3.883082   -0.844493    0.958108
 H    3.918722   -1.011167   -0.813336
 H    4.900273    0.256594   -0.019901
