24 
5orx_ligand_ani.xyz
 C   -2.447121   -0.270486    1.237296
 C    1.991847    1.120420    0.090056
 C    3.174504    0.934243    0.798506
 C    3.623038   -0.356736    1.045739
 C    1.256926    0.027315   -0.366987
 C    1.720122   -1.262694   -0.107818
 C    2.904566   -1.457214    0.595466
 C   -1.092475    0.162006   -0.529920
 C   -2.179455    0.481334   -1.351512
 C   -3.447119    0.410709   -0.819902
Cl    1.417598    2.719917   -0.234075
Cl    0.813972   -2.626890   -0.663525
 O    0.129310    0.237320   -1.118213
 N   -1.213931   -0.205133    0.730180
 C   -3.606639    0.021412    0.522991
 N   -4.867997   -0.132119    1.091131
 H   -2.523275   -0.582830    2.278211
 H    3.731745    1.798549    1.145864
 H    4.546000   -0.508896    1.596313
 H    3.252129   -2.467229    0.787321
 H   -1.993785    0.772648   -2.380546
 H   -4.319241    0.644732   -1.428107
 H   -4.888066   -0.072013    2.100280
 H   -5.592355    0.433927    0.672903
