32 
5os4_ligand_ani.xyz
 C    4.224259   -0.820141    0.757134
 C    2.837811   -0.902555    0.677871
 C    4.915639    0.119848   -0.002478
 C    4.208201    0.975475   -0.840945
 C    2.820823    0.888993   -0.916812
 C    2.115886   -0.049726   -0.160352
 C   -2.203186   -0.948646    0.408303
 C    0.600053   -0.116523   -0.236421
 C    0.092273   -1.530569   -0.550628
 C   -1.416625   -1.521689   -0.785316
 C   -0.050377    0.389186    1.058033
 C   -1.571164    0.309481    1.032073
 C   -2.229817    1.445759    0.255733
 O   -1.834703    2.578901    0.123019
 N   -3.425484    0.938839   -0.243692
 C   -3.548674   -0.440014   -0.109890
 O   -4.521542   -1.086780   -0.412142
 H    4.766646   -1.493847    1.415823
 H    2.316758   -1.645173    1.281553
 H    5.999129    0.183862    0.059653
 H    4.735996    1.713547   -1.440270
 H    2.276540    1.562033   -1.577550
 H   -2.364912   -1.733291    1.149082
 H    0.283278    0.543031   -1.057264
 H    0.340464   -2.206036    0.279123
 H    0.606781   -1.918090   -1.437028
 H   -1.781256   -2.533102   -0.995908
 H   -1.630558   -0.919463   -1.676996
 H    0.241823    1.427331    1.241985
 H    0.335480   -0.209046    1.895177
 H   -1.941231    0.417228    2.060645
 H   -4.127195    1.508887   -0.697026
