25 
5os5_ligand_xtb.xyz
 C   -2.419075   -1.217920   -0.786598
 C   -1.320731   -0.385562   -0.739352
 C    2.504806    1.150569   -0.707063
 C    3.616511    0.334552   -0.680081
 C    3.615364   -0.819776    0.098500
 C    1.383818    0.827636    0.047043
 C    1.386379   -0.308390    0.842723
 C    2.493776   -1.133948    0.858642
 C   -1.379995    0.803610   -0.023716
 C   -2.554653    1.165867    0.619876
 C   -3.660521    0.339621    0.559374
 O    4.724408   -1.605638    0.087009
 S   -0.008788    1.931714    0.026720
 C   -3.598888   -0.860856   -0.138696
 O   -4.658619   -1.709820   -0.216619
 H   -2.386660   -2.147632   -1.331583
 H   -0.413469   -0.661866   -1.255330
 H    2.497973    2.043423   -1.312818
 H    4.494668    0.569440   -1.259737
 H    0.521776   -0.553484    1.441286
 H    2.490427   -2.024701    1.473145
 H   -2.599049    2.096604    1.164092
 H   -4.575656    0.626244    1.060524
 H    4.594877   -2.365978    0.666828
 H   -5.411337   -1.338232    0.259036
