22 
5ose_ligand_dft.xyz
 C   -0.795691    0.714698   -0.000673
 C   -3.117634   -0.031162   -0.000313
 C   -5.420255   -0.398177    0.001506
 C    1.449705   -0.015261   -0.000073
 C    4.132214    0.510259    0.000504
 C    5.558431   -0.027064    0.000565
 S    2.965614   -0.896980    0.000214
 N    1.346518    1.276964    0.000217
 N    0.042483    1.702476   -0.000159
 S   -0.079253   -0.874291   -0.000826
 N   -2.156573    0.948084   -0.001255
 O   -2.887346   -1.220393   -0.000411
 O   -4.332724    0.528946    0.000505
 H   -5.385432   -1.029306   -0.889237
 H   -5.384284   -1.028721    0.892618
 H   -6.320751    0.214368    0.001884
 H    3.930136    1.120653   -0.882167
 H    3.929971    1.120447    0.883274
 H    5.759006   -0.635320    0.888013
 H    5.759382   -0.634445   -0.887390
 H    6.260134    0.812558    0.001141
 H   -2.436990    1.919264    0.000193
