22 
5ose_ligand_ani.xyz
 C   -0.794617    0.726017   -0.056987
 C   -3.112640   -0.026935    0.002413
 C   -5.400115   -0.432101    0.132779
 C    1.442948   -0.009568   -0.059191
 C    4.127686    0.500275    0.040669
 C    5.539791   -0.053020    0.186302
 S    2.955709   -0.890781   -0.052067
 N    1.345853    1.280629   -0.039838
 N    0.046673    1.712388   -0.040489
 S   -0.079998   -0.860167   -0.081511
 N   -2.154333    0.961351   -0.053565
 O   -2.867097   -1.210392    0.003670
 O   -4.335832    0.521389    0.055661
 H   -5.395730   -1.080442   -0.746416
 H   -5.294892   -1.049915    1.027671
 H   -6.315636    0.155693    0.175090
 H    4.022837    1.103093   -0.863789
 H    3.848787    1.123984    0.892237
 H    5.633260   -0.653539    1.096564
 H    5.806229   -0.680834   -0.669560
 H    6.261671    0.768780    0.244846
 H   -2.440157    1.931776   -0.032695
