50 
5osk_ligand_ani.xyz
 C    1.006330   -1.946845   -0.097194
 C   -4.913124    0.151425    0.094627
 C    0.485754   -1.186409    0.944272
 C    1.285992   -0.250570    1.593209
 C   -3.154589   -1.627230    0.243412
 C   -1.228813   -2.709174   -0.761103
 C   -0.930208   -1.487643    1.353938
 C   -3.549497   -0.181186    0.002154
 C   -2.644227    0.819516   -0.311913
 C    2.352084   -1.824066   -0.457301
 C    2.621120   -0.090119    1.226046
 C   -5.338236    1.452529   -0.127345
 C   -4.413623    2.451417   -0.446989
 C   -3.066871    2.134720   -0.541000
 C    3.139472   -0.904368    0.199836
 C   -2.476013    4.361345   -1.083579
 C   -7.121929   -0.594101    0.508754
 C    2.972789    1.643052    2.796142
 N    6.031316    1.032985    0.364680
 N    0.151915   -2.830723   -0.756124
 N   -1.725468   -1.851753    0.193005
 O   -2.085099    3.027010   -0.846845
 O   -5.746170   -0.880265    0.410507
 O    3.489647    0.780252    1.797360
 O    4.489460   -0.823592   -0.135565
 O    5.930016    0.048731   -1.934545
 O    3.967823    1.396156   -1.128475
 O   -1.921508   -3.315983   -1.560661
 S    5.073838    0.501180   -0.870932
 H    0.864932    0.358976    2.386690
 H   -3.586100   -2.280312   -0.521680
 H   -3.559250   -1.964808    1.208376
 H   -1.392493   -0.615827    1.828410
 H   -0.952325   -2.306705    2.093912
 H   -1.582731    0.605105   -0.388101
 H    2.792788   -2.418781   -1.252242
 H   -6.389603    1.714595   -0.058138
 H   -4.770625    3.462031   -0.617614
 H   -3.162003    4.433583   -1.938089
 H   -2.956834    4.802119   -0.200116
 H   -1.559748    4.909411   -1.307930
 H   -7.323275    0.148532    1.292375
 H   -7.524248   -0.225467   -0.444276
 H   -7.609815   -1.534810    0.767989
 H    2.165109    2.263692    2.390760
 H    2.610381    1.072666    3.659248
 H    3.800543    2.282817    3.106782
 H    6.651558    1.777198    0.062619
 H    5.440421    1.287966    1.151790
 H    0.505771   -3.376628   -1.526786
