32 
5ota_ligand_ani.xyz
 O   -2.336243   -1.725313   -1.151200
 C   -2.895200   -1.115791   -0.264697
 C   -2.430402    0.265479    0.197717
 C   -2.310406    0.372495    1.712950
 N   -1.190635    0.531812   -0.593564
 C    0.132737    0.623444    0.093939
 C    0.686040    2.036572   -0.038634
 O    0.087711    2.706379   -1.054522
 O    1.561875    2.517787    0.632691
 C    1.136060   -0.391810   -0.487555
 C    2.422556   -0.534645    0.323813
 C    3.379330   -1.524468   -0.341079
 N    4.664003   -1.681294    0.422462
 O   -3.976169   -1.561702    0.379379
 H   -3.195541    0.972362   -0.132410
 H   -1.888306    1.342106    1.988619
 H   -3.302426    0.288306    2.158154
 H   -1.689756   -0.423712    2.134147
 H   -1.165947   -0.282860   -1.244625
 H   -1.282647    1.402826   -1.149065
 H    0.013605    0.426934    1.155264
 H    0.505087    3.582922   -1.091814
 H    0.619230   -1.361670   -0.540748
 H    1.377336   -0.102082   -1.521390
 H    2.896680    0.447433    0.431309
 H    2.170814   -0.882123    1.335578
 H    3.621504   -1.183774   -1.347068
 H    2.909475   -2.504218   -0.422806
 H    5.139215   -0.764932    0.467453
 H    4.447788   -2.000743    1.380869
 H    5.281422   -2.364474   -0.034114
 H   -4.192793   -2.430800    0.000852
