53 
5ouh_ligand_xtb.xyz
 O   -1.504513   -0.715923   -0.643302
 C   -2.540036   -0.195501   -0.256389
 C    6.168502   -2.189934    0.350223
 C    5.921683   -1.683420   -0.914978
 C    4.701193   -1.099173   -1.202845
 C    3.720073   -1.015893   -0.224588
 C    3.972518   -1.523958    1.042649
 C    5.191891   -2.111638    1.328135
 C    2.443998    1.114517   -0.065274
 C    1.176465    1.895938   -0.408547
 C    1.283939    3.379197   -0.058795
 C    0.025855    4.128954   -0.494662
 C   -1.232434    3.469873    0.067991
 C   -1.258683    1.990448   -0.305302
 N   -0.042631    1.307361    0.228354
 C    0.022843    1.227108    1.695062
 C   -2.551332    1.284965    0.112096
 C    2.393842   -0.352779   -0.523427
 O    1.310672   -0.979742    0.149991
 C   -4.955594   -0.408460    0.432218
 C   -3.792547   -0.942230   -0.133297
 C   -3.809663   -2.261775   -0.602255
 C   -4.955982   -3.024207   -0.516386
 C   -6.102463   -2.484452    0.046765
 C   -6.096952   -1.180206    0.521225
 H    7.119935   -2.647269    0.572576
 H    6.679342   -1.746395   -1.680626
 H    4.507647   -0.708594   -2.191609
 H    3.206960   -1.466870    1.803570
 H    5.378622   -2.506702    2.314893
 H    3.280790    1.591840   -0.575873
 H    2.655217    1.148112    1.003010
 H    1.014758    1.806282   -1.489616
 H    1.455400    3.509268    1.009715
 H    2.149462    3.795533   -0.573633
 H   -0.029707    4.136055   -1.585013
 H    0.080549    5.164769   -0.161979
 H   -2.114791    3.955791   -0.348567
 H   -1.275729    3.591097    1.150717
 H   -1.186327    1.904779   -1.396519
 H   -0.111652    0.304097   -0.094874
 H    0.185037    2.202574    2.143476
 H   -0.898847    0.801237    2.080845
 H    0.831023    0.556202    1.971092
 H   -3.377719    1.766113   -0.413501
 H   -2.746442    1.393592    1.180398
 H    2.210846   -0.380112   -1.609935
 H    1.303838   -1.917340   -0.068762
 H   -4.975260    0.600517    0.813353
 H   -2.907432   -2.664210   -1.037552
 H   -4.958737   -4.037783   -0.885944
 H   -7.000563   -3.078219    0.118234
 H   -6.989770   -0.764815    0.962421
