63 
5ov8_ligand_dft.xyz
 C   -2.523394   -0.776779   -2.207101
 C   -4.652911    0.508509   -2.573317
 C   -1.927937    1.372899    2.897120
 C   -1.970247   -3.571720    0.062720
 C    0.061627    1.409442   -2.378276
 C   -1.121623    2.835130   -0.846645
 C    1.229885    1.578336   -1.646919
 C    0.038051    3.014474   -0.104466
 C    0.442910    0.341772    1.724643
 C    0.424253   -2.045752    0.319611
 C    4.890849   -2.790809   -0.415732
 C    4.223623   -2.676697   -1.811255
 C    3.783266   -2.406310    0.581415
 C    2.743955   -2.435588   -1.499659
 C   -2.439207    1.723985   -2.674928
 C   -1.136010    2.009009   -1.973521
 C    1.595012   -0.089630    1.082112
 C    1.202614    2.367321   -0.500669
 C    1.599470   -1.306989    0.387151
 C   -3.171919   -0.405725    1.821782
 C   -3.183259   -1.726865    1.049506
 C   -0.750204   -0.366783    1.593816
 C   -0.762084   -1.577499    0.884941
 C   -3.228729    0.567903   -2.019747
 N    2.754696    0.714947    1.010319
 N    2.807726   -1.687260   -0.250498
 N   -1.944046    0.139291    2.123726
 N   -1.965344   -2.282561    0.734414
 O   -4.224346    0.095089    2.156277
 O   -4.244196   -2.245838    0.770315
 O    3.830886    2.658748   -0.109401
 O    2.213145    3.085817    1.795861
 S    2.602399    2.353697    0.602949
 H   -2.398479   -0.998014   -3.275214
 H   -1.532304   -0.789437   -1.739336
 H   -3.122568   -1.581171   -1.768122
 H   -5.180459    1.456093   -2.419718
 H   -4.644322    0.296396   -3.649931
 H   -5.225367   -0.280736   -2.075621
 H   -2.939898    1.547181    3.256223
 H   -1.243966    1.275984    3.744286
 H   -1.615774    2.215149    2.271427
 H   -1.279670   -4.256350    0.563000
 H   -2.983639   -3.964319    0.114792
 H   -1.682922   -3.463856   -0.989207
 H    0.069725    0.780734   -3.264444
 H   -2.040376    3.323258   -0.531499
 H    2.145992    1.075929   -1.944779
 H    0.044547    3.624593    0.792457
 H    0.471705    1.279300    2.263793
 H    0.427864   -2.981371   -0.224116
 H    5.743101   -2.111413   -0.336729
 H    5.258230   -3.800698   -0.217149
 H    4.371021   -3.568521   -2.425345
 H    4.631019   -1.822388   -2.358622
 H    4.130893   -1.771169    1.401598
 H    3.322523   -3.304746    1.025281
 H    2.225842   -3.404082   -1.379890
 H    2.213919   -1.858742   -2.263241
 H   -2.259523    1.478220   -3.729645
 H   -3.060553    2.627381   -2.660953
 H   -3.293732    0.778996   -0.942488
 H    3.425689    0.287403    0.370365
