63 
5ov8_ligand_ani.xyz
 C   -3.514787   -1.687311   -2.776485
 C   -5.634604   -3.025702   -2.525734
 C    0.883845   -2.576792    2.703431
 C    3.988537   -2.045143   -2.055403
 C   -3.994632    1.083077   -0.491937
 C   -3.433462   -0.834495    0.842405
 C   -3.059154    1.847185    0.194724
 C   -2.503444   -0.081052    1.545158
 C    0.993790   -0.116787    1.311136
 C    2.523648    0.156086   -0.999779
 C    2.647371    4.756978   -1.407723
 C    2.179371    4.158087   -2.750700
 C    2.646182    3.567591   -0.427169
 C    2.220885    2.647451   -2.514180
 C   -5.185927   -1.103523   -0.958049
 C   -4.193382   -0.265785   -0.185212
 C    1.008846    1.090340    0.639952
 C   -2.306981    1.252794    1.201648
 C    1.821191    1.249819   -0.511135
 C    2.394115   -3.546712    1.081086
 C    3.215671   -3.408288   -0.210254
 C    1.716421   -1.209495    0.828413
 C    2.485010   -1.076395   -0.347900
 C   -4.551220   -2.231937   -1.794283
 N    0.247345    2.215599    1.033010
 N    1.859832    2.533138   -1.109937
 N    1.691976   -2.438617    1.498953
 N    3.201846   -2.180607   -0.834067
 O    2.381172   -4.600746    1.681766
 O    3.838423   -4.358374   -0.636340
 O   -1.505856    3.598038    2.053075
 O   -0.729831    1.508899    3.268906
 S   -1.079912    2.211152    2.047895
 H   -3.987255   -1.004794   -3.495883
 H   -2.723649   -1.134291   -2.258325
 H   -3.048343   -2.500656   -3.343899
 H   -6.367848   -3.445882   -1.827135
 H   -6.175130   -2.380683   -3.230479
 H   -5.200353   -3.853247   -3.098403
 H    0.981357   -3.601132    3.057023
 H    1.225504   -1.885095    3.480705
 H   -0.167515   -2.366594    2.477634
 H    4.445891   -3.011103   -2.260954
 H    3.347808   -1.761660   -2.896669
 H    4.774496   -1.293095   -1.928568
 H   -4.583295    1.541536   -1.284014
 H   -3.574407   -1.883657    1.095546
 H   -2.921970    2.899996   -0.036382
 H   -1.945080   -0.514051    2.370079
 H    0.433888   -0.196916    2.231666
 H    3.111933    0.267797   -1.903071
 H    1.969204    5.546489   -1.074362
 H    3.649391    5.190256   -1.472489
 H    2.804182    4.458713   -3.596179
 H    1.152880    4.466411   -2.967739
 H    2.207022    3.800583    0.547321
 H    3.671911    3.207989   -0.245821
 H    3.239234    2.266095   -2.707465
 H    1.519836    2.097274   -3.147320
 H   -5.765617   -0.452680   -1.627425
 H   -5.904762   -1.554175   -0.258518
 H   -4.039900   -2.916696   -1.101355
 H    0.187187    2.945745    0.329125
