59 
5ov9_ligand_xtb.xyz
 C   -0.001541   -0.005446   -1.149488
 C   -1.356529   -0.502518   -0.698038
 C   -1.999950   -1.503205   -1.413054
 C   -3.227819   -1.997291   -1.022329
 C   -3.873701   -1.509573    0.120313
 C   -3.220080   -0.499594    0.836120
 C   -1.990793   -0.014756    0.435251
 C    1.109108   -0.927326   -0.697144
 C    2.314598   -0.942179   -1.385606
 C    3.361540   -1.751739   -0.995200
 C    3.249829   -2.591191    0.119915
 C    2.031768   -2.571876    0.809297
 C    0.992088   -1.755559    0.409412
 C    0.243188    1.416879   -0.697217
 C   -0.322079    2.472289   -1.399696
 C   -0.139752    3.782832   -1.008145
 C    0.622386    4.100788    0.122696
 C    1.189822    3.032059    0.826473
 C    0.998314    1.724685    0.425009
 C   -5.827026   -2.891708   -0.338574
 C   -5.843467   -1.300174    1.535214
 C    4.043927   -4.445721    1.481123
 C    5.459808   -3.525176   -0.306393
 C    0.377600    6.482490   -0.327814
 C    1.803332    5.707353    1.519076
 N   -5.083313   -2.029121    0.547527
 N    4.306806   -3.375485    0.547990
 N    0.775330    5.408436    0.550196
 H   -0.000953   -0.005636   -2.248072
 H   -1.531081   -1.907384   -2.300182
 H   -3.680132   -2.769118   -1.623321
 H   -3.666323   -0.078494    1.722234
 H   -1.520331    0.765515    1.016178
 H    2.439031   -0.305074   -2.250965
 H    4.269608   -1.724139   -1.575050
 H    1.881828   -3.196430    1.674805
 H    0.068501   -1.770604    0.970176
 H   -0.919423    2.265992   -2.277618
 H   -0.598387    4.558863   -1.599064
 H    1.790413    3.210049    1.703605
 H    1.454287    0.928857    0.996411
 H   -6.741581   -3.212286    0.156491
 H   -6.097823   -2.397481   -1.280971
 H   -5.243909   -3.785137   -0.567781
 H   -6.059532   -0.270719    1.222081
 H   -6.787932   -1.810579    1.711746
 H   -5.300219   -1.269578    2.481700
 H    3.726530   -4.038760    2.443471
 H    3.269448   -5.134265    1.120053
 H    4.957359   -5.013144    1.646153
 H    5.213303   -3.981928   -1.274214
 H    5.920187   -2.552375   -0.486510
 H    6.196705   -4.152101    0.191961
 H    0.923220    6.473380   -1.280683
 H   -0.691519    6.418571   -0.536899
 H    0.561524    7.435443    0.164462
 H    1.579446    5.218451    2.469247
 H    2.798890    5.386875    1.186359
 H    1.829681    6.780357    1.696976
