59 
5ov9_ligand_dft.xyz
 C   -0.000625   -0.002091   -1.096043
 C   -1.330423   -0.610216   -0.666053
 C   -1.848330   -1.705049   -1.358974
 C   -3.034463   -2.318604   -0.985198
 C   -3.763718   -1.862271    0.129752
 C   -3.247834   -0.752518    0.821124
 C   -2.058162   -0.149608    0.428175
 C    1.191672   -0.849053   -0.667226
 C    2.396261   -0.753428   -1.364977
 C    3.522317   -1.471223   -0.991113
 C    3.495996   -2.324359    0.128943
 C    2.279198   -2.429894    0.824740
 C    1.160438   -1.704016    0.431500
 C    0.138009    1.453989   -0.667863
 C   -0.542781    2.450730   -1.367795
 C   -0.482289    3.784893   -0.994011
 C    0.267408    4.187181    0.128061
 C    0.963283    3.184870    0.825827
 C    0.892078    1.853240    0.432713
 C   -5.572361   -3.419364   -0.377579
 C   -5.786085   -1.812411    1.492108
 C    4.471262   -4.089818    1.500532
 C    5.747703   -3.113426   -0.381123
 C   -0.171267    6.532696   -0.381152
 C    1.312081    5.911817    1.499762
 N   -4.940429   -2.488389    0.532125
 N    4.628837   -3.026256    0.532280
 N    0.311279    5.518959    0.531519
 H   -0.001144   -0.002660   -2.195343
 H   -1.305855   -2.094360   -2.218159
 H   -3.389322   -3.157559   -1.572153
 H   -3.773829   -0.340762    1.674405
 H   -1.698868    0.710566    0.985850
 H    2.458977   -0.093557   -2.227908
 H    4.424389   -1.362032   -1.581494
 H    2.189144   -3.086892    1.681795
 H    0.237751   -1.820336    0.992897
 H   -1.143623    2.176369   -2.232509
 H   -1.024098    4.512881   -1.586391
 H    1.575773    3.434205    1.684281
 H    1.451173    1.111437    0.995884
 H   -4.923137   -4.281414   -0.567101
 H   -6.489209   -3.799090    0.077805
 H   -5.829992   -2.964697   -1.347839
 H   -6.118346   -0.819662    1.147971
 H   -6.670346   -2.423521    1.683818
 H   -5.266139   -1.684617    2.448082
 H    4.102849   -3.696935    2.454676
 H    3.778137   -4.877884    1.164462
 H    5.444153   -4.546646    1.692792
 H    5.479989   -3.572569   -1.346511
 H    6.166948   -2.120981   -0.580894
 H    6.537873   -3.712200    0.076265
 H    0.359609    6.529890   -1.346887
 H   -1.240847    6.402241   -0.580066
 H   -0.045509    7.515931    0.076602
 H    1.155192    5.396006    2.453618
 H    2.340552    5.703339    1.163366
 H    1.223742    6.982908    1.692442
