59 
5ov9_ligand_ani.xyz
 C    0.006047    0.011068   -1.115338
 C   -1.090280    0.993163   -0.709206
 C   -2.305021    0.979873   -1.396652
 C   -3.367821    1.787031   -1.023559
 C   -3.259365    2.659319    0.078706
 C   -2.025428    2.687317    0.758185
 C   -0.970965    1.877525    0.361548
 C   -0.299921   -1.427684   -0.704089
 C    0.327930   -2.476677   -1.377639
 C    0.146303   -3.799642   -1.007085
 C   -0.688396   -4.137389    0.077659
 C   -1.332125   -3.078594    0.747859
 C   -1.141874   -1.761592    0.355554
 C    1.401776    0.466527   -0.695755
 C    2.009249    1.519493   -1.381241
 C    3.248049    2.018350   -1.010595
 C    3.944096    1.477412    0.089475
 C    3.332735    0.410195    0.776449
 C    2.097113   -0.081528    0.381027
 C   -5.548057    3.437511   -0.280740
 C   -4.173091    4.322361    1.618446
 C   -1.737399   -5.755175    1.578314
 C   -0.199496   -6.509152   -0.251766
 C    5.810019    3.006018   -0.304895
 C    5.832043    1.426518    1.640355
 N   -4.316529    3.451187    0.474752
 N   -0.868035   -5.448293    0.465854
 N    5.172172    1.971398    0.476227
 H    0.011885    0.010924   -2.218457
 H   -2.433473    0.311444   -2.247666
 H   -4.288800    1.735268   -1.592855
 H   -1.881612    3.351216    1.602243
 H   -0.023837    1.936494    0.898613
 H    0.987911   -2.257932   -2.216733
 H    0.658513   -4.574451   -1.565934
 H   -1.992356   -3.281578    1.582501
 H   -1.668984   -0.967957    0.885902
 H    1.499861    1.971719   -2.231862
 H    3.674519    2.835977   -1.580323
 H    3.827754   -0.048520    1.624092
 H    1.661019   -0.921761    0.922147
 H   -6.261544    4.131546    0.172511
 H   -5.388015    3.746173   -1.323033
 H   -6.005114    2.438717   -0.291835
 H   -3.396500    5.083302    1.458261
 H   -5.119914    4.836653    1.806264
 H   -3.908926    3.757176    2.522247
 H   -1.393205   -5.274625    2.504216
 H   -2.768364   -5.424709    1.390939
 H   -1.752162   -6.836274    1.743092
 H   -0.505298   -6.541711   -1.306604
 H    0.892242   -6.391879   -0.221296
 H   -0.449191   -7.471575    0.203895
 H    5.955932    2.692147   -1.347519
 H    5.220646    3.933143   -0.312047
 H    6.791734    3.231459    0.121263
 H    5.199419    1.509793    2.534124
 H    6.089393    0.366314    1.507706
 H    6.756495    1.979981    1.828209
