48 
5ove_ligand_xtb.xyz
 C   -1.970840    0.980743    0.144526
 C   -3.699829   -1.173612    0.016473
 C   -4.136133    0.058993   -0.408264
 C    3.092711    0.657242    0.815228
 C   -4.805690    2.876601   -1.082137
 C    3.745476    1.853856    0.970600
 C    4.363409    0.296912   -1.250230
 C    2.750858   -1.389062   -0.574116
 C    5.014632    1.529663   -1.037969
 C    3.065719   -2.130560   -1.679453
 C   -6.280353   -0.811183   -0.985034
 O   -5.390594    0.275990   -0.907434
 C   -3.249134    1.171744   -0.336258
 O   -3.511974    2.456584   -0.712153
 C   -1.514183   -0.270545    0.573075
 C   -2.400887   -1.370504    0.511486
 N   -2.034592   -2.611849    0.913408
 C   -0.819827   -2.736861    1.361210
 N    0.109815   -1.788951    1.477847
 C   -0.209945   -0.559415    1.095128
 N    0.727142    0.397185    1.202883
 C    2.035380    0.201598    1.801368
 C    2.082191    0.902042    3.160639
 C    3.385682   -0.152420   -0.320181
 C    4.032212   -1.684547   -2.591562
 C    4.667227   -0.494951   -2.377356
 C    4.708099    2.292417    0.050072
 H   -1.335719    1.853184    0.171258
 H   -4.335336   -2.042117   -0.017425
 H   -5.536697    2.678808   -0.295311
 H   -4.718136    3.952927   -1.232669
 H   -5.136754    2.405974   -2.010112
 H    3.533655    2.486514    1.818016
 H    2.001433   -1.761530    0.105739
 H    5.755573    1.856559   -1.753390
 H    2.565882   -3.072052   -1.854170
 H   -5.897743   -1.596903   -1.643450
 H   -7.199246   -0.403133   -1.403986
 H   -6.487036   -1.232602    0.003422
 H   -0.513897   -3.725606    1.682322
 H    0.492369    1.335389    0.923629
 H    2.132207   -0.873731    1.973878
 H    1.370465    0.423079    3.829024
 H    1.812038    1.952562    3.076196
 H    3.075128    0.821184    3.594253
 H    4.268666   -2.285515   -3.457443
 H    5.415387   -0.136626   -3.070572
 H    5.201079    3.239454    0.215055
