56 
5ovg_ligand_ani.xyz
 C    4.396082    1.079860   -0.370030
 C   -1.534850   -1.088123    1.396198
 C    3.187217    2.997770   -0.196263
 C   -0.247380    1.126111    1.043134
 C    3.080904    4.487496   -0.355047
 C    2.122326    1.063156    0.405065
 C   -0.279791    1.852244    2.400011
 C   -1.405967    0.177916    0.895338
 C    3.320000    0.319118    0.108971
 C   -8.038256    0.090724   -1.365789
 C   -7.506425    1.437886   -0.829458
 C   -5.982445    1.247514   -0.670944
 N   -5.892777   -0.192474   -0.482956
 C   -7.014361   -0.858644   -0.840662
 N   -6.932469   -2.152509   -0.640947
 C   -5.677308   -2.322006   -0.125561
 C   -4.991466   -1.125886   -0.013143
 C   -3.646819   -0.836950    0.434599
 S   -2.859392    0.677355    0.095809
 C   -2.806515   -1.665195    1.137299
 N    1.012097    0.410927    0.856340
 N    2.073891    2.374929    0.273824
 N    4.322564    2.432842   -0.522443
 C    5.606293    0.427187   -0.711073
 C    3.468961   -1.086529    0.275893
 C    4.645944   -1.709910   -0.063322
 O    4.884243   -3.040153    0.037248
 C    3.828226   -3.847766    0.508958
 C    5.741227   -0.927380   -0.571319
 O    6.858503   -1.624815   -0.878408
 C    7.949708   -0.885913   -1.381926
 H   -0.753757   -1.597775    1.952941
 H   -0.311071    1.895475    0.264252
 H    2.284515    4.733814   -1.064226
 H    4.031503    4.881581   -0.719081
 H    2.829831    4.952373    0.603236
 H   -1.243079    2.355520    2.526002
 H    0.519599    2.597693    2.430969
 H   -0.133967    1.139229    3.218137
 H   -8.040046    0.071332   -2.462323
 H   -9.049166   -0.138853   -1.023307
 H   -7.748838    2.277625   -1.482915
 H   -7.947218    1.636226    0.151354
 H   -5.439381    1.546435   -1.572828
 H   -5.570583    1.789896    0.182156
 H   -5.318672   -3.310975    0.131009
 H   -3.093199   -2.657808    1.467003
 H    0.934642   -0.558918    0.579432
 H    6.404966    1.057954   -1.081556
 H    2.647505   -1.660414    0.699184
 H    3.550422   -3.584362    1.537915
 H    2.944907   -3.769275   -0.138245
 H    4.200993   -4.872706    0.488368
 H    8.743058   -1.610563   -1.568975
 H    8.300052   -0.143256   -0.653369
 H    7.690332   -0.380289   -2.321100
