56 
5ovh_ligand_ani.xyz
 C   -2.700715   -1.501198   -0.204602
 C   -0.852467   -2.309448   -1.253439
 C    0.024418   -3.467396   -1.626266
 C    0.862764    1.896022   -0.086196
 C    2.382006    1.693303    1.670011
 C    6.765230    0.553374    1.178092
 C    6.927240   -0.798621    0.898366
 C    5.813916   -1.581288    0.609714
 C    3.349296   -1.952138    0.316943
 C   -3.867119   -1.732060    0.566073
 C   -6.174046   -2.148241    2.042080
 O   -5.872014   -0.852376    1.573504
 C   -4.736660   -0.715238    0.851185
 C   -4.474302    0.612415    0.363139
 O   -5.401961    1.543804    0.686731
 C   -5.170289    2.857410    0.230036
 C   -3.340817    0.850986   -0.375813
 C   -2.416164   -0.196155   -0.641988
 N   -1.898872   -2.558515   -0.508828
 N   -0.471893   -1.094597   -1.731232
 C   -1.193711   -0.045116   -1.382928
 N   -0.769526    1.188967   -1.839546
 C   -0.344638    2.261723   -0.921330
 C   -0.101941    3.516942   -1.758505
 S    2.189923    1.048835   -0.791153
 C    1.116427    2.180720    1.227483
 C    3.066230    1.012452    0.702023
 C    4.377398    0.343948    0.811666
 C    5.495110    1.117326    1.141843
 C    4.531820   -1.037702    0.587007
 O    3.049275   -2.083294   -1.060983
 H   -0.413522   -4.391116   -1.244300
 H    1.028723   -3.330979   -1.210932
 H    0.124295   -3.525095   -2.713798
 H    2.770079    1.810699    2.675249
 H    7.627243    1.169293    1.419278
 H    7.916802   -1.248056    0.916069
 H    5.935389   -2.642961    0.404097
 H    3.585315   -2.961361    0.670868
 H    2.468602   -1.600883    0.875178
 H   -4.033712   -2.750705    0.895159
 H   -7.113764   -2.059031    2.588514
 H   -6.302594   -2.853570    1.210781
 H   -5.394098   -2.520787    2.718691
 H   -5.151447    2.901372   -0.866631
 H   -5.999838    3.459667    0.602625
 H   -4.225312    3.253468    0.623802
 H   -3.140162    1.831969   -0.796401
 H   -0.059648    1.034958   -2.550866
 H   -1.162844    2.457943   -0.220183
 H    0.133310    4.381205   -1.129872
 H   -0.995935    3.735012   -2.348461
 H    0.733389    3.349613   -2.446227
 H    0.424089    2.724350    1.862516
 H    5.366022    2.176442    1.348431
 H    2.586575   -1.270981   -1.329480
