61 
5ovi_ligand_ani.xyz
 N   -2.351623   -2.059753    1.384982
 C   -2.904783   -0.950497    0.721600
 C   -2.192661    0.292448    0.637521
 C   -0.917723    0.521393    1.214391
 C   -0.289655    1.718284    1.016491
 C   -0.931333    2.760990    0.288632
 C   -2.182042    2.567551   -0.238374
 C    1.112783   -1.915551   -1.890588
 C    1.602137   -1.872027   -0.616561
 C    2.977044   -1.469052   -0.243290
 C    5.037821   -2.074592    0.888286
 C    4.881397    0.003233   -0.310444
 C   -0.806478    4.963621   -0.539590
 O   -0.210694    3.911265    0.185145
 O    0.998100    1.933159    1.481827
 C    1.065818    2.667216    2.699442
 C   -2.839609    1.324640   -0.067966
 N   -4.088604    1.162659   -0.587877
 C   -4.659458    0.000050   -0.407918
 C   -6.041443   -0.194691   -0.960209
 N   -4.117700   -1.078905    0.230026
 C   -1.798348   -3.136531    0.515500
 C   -1.467694   -4.328910    1.411591
 C   -0.563638   -2.670819   -0.214704
 C    0.639539   -2.344473    0.335382
 S   -0.511320   -2.484440   -1.937566
 C    3.721251   -2.346306    0.551947
 C    5.628235   -0.897670    0.439067
 C    3.551669   -0.253565   -0.647456
 C    2.808771    0.834985   -1.400253
 N    2.749865    2.074240   -0.577206
 C    2.415109    3.276646   -1.352945
 H   -3.118801   -2.491251    1.898812
 H   -0.443260   -0.268051    1.786221
 H   -2.710318    3.338425   -0.785895
 H    1.641354   -1.680748   -2.804841
 H    5.603958   -2.777275    1.492925
 H    5.352951    0.921099   -0.658708
 H   -1.030961    4.661750   -1.571633
 H   -0.080525    5.778358   -0.549982
 H   -1.731460    5.304007   -0.056072
 H    2.122336    2.732715    2.970140
 H    0.656728    3.670351    2.550687
 H    0.511166    2.143454    3.486078
 H   -6.721280   -0.525714   -0.169791
 H   -6.396449    0.745145   -1.386740
 H   -6.031759   -0.967551   -1.735313
 H   -2.543275   -3.442659   -0.233200
 H   -0.779974   -4.021274    2.204912
 H   -1.011701   -5.141806    0.838355
 H   -2.380545   -4.710323    1.882607
 H    0.837127   -2.379026    1.404663
 H    3.242570   -3.266873    0.878348
 H    6.660566   -0.669668    0.691801
 H    1.785155    0.543304   -1.642706
 H    3.327724    1.052233   -2.343063
 H    2.054806    1.913744    0.182668
 H    3.668476    2.208064   -0.121366
 H    3.142771    3.448068   -2.157839
 H    2.403964    4.152436   -0.701599
 H    1.426724    3.178785   -1.810944
