61 
5ovi_ligand_dft.xyz
 N   -2.558423   -2.028228    1.355457
 C   -3.042683   -0.863281    0.712199
 C   -2.211028    0.286045    0.603326
 C   -0.932805    0.407546    1.193447
 C   -0.211776    1.549209    1.008302
 C   -0.733524    2.637192    0.245424
 C   -1.989176    2.548291   -0.303088
 C    0.886302   -1.564740   -1.868575
 C    1.452136   -1.775353   -0.636261
 C    2.877626   -1.553604   -0.303553
 C    4.918147   -2.472718    0.659113
 C    4.950146   -0.293472   -0.336703
 C   -0.412196    4.868601   -0.498159
 O    0.096728    3.706356    0.140925
 O    1.053877    1.665496    1.564912
 C    1.088763    2.412130    2.788339
 C   -2.757495    1.370833   -0.116894
 N   -4.016934    1.331467   -0.627183
 C   -4.715777    0.241686   -0.400844
 C   -6.124942    0.175946   -0.905218
 N   -4.266046   -0.875436    0.242895
 C   -1.977143   -3.034049    0.426144
 C   -1.692524   -4.310267    1.215688
 C   -0.732209   -2.515824   -0.247959
 C    0.510811   -2.333192    0.284749
 S   -0.766731   -2.022916   -1.904368
 C    3.570993   -2.583805    0.347749
 C    5.620712   -1.323466    0.305718
 C    3.582011   -0.380375   -0.623571
 C    2.927278    0.826505   -1.245765
 N    3.022217    2.015307   -0.318296
 C    2.906261    3.327782   -1.004916
 H   -3.374209   -2.475670    1.771198
 H   -0.538030   -0.396636    1.800894
 H   -2.442596    3.353471   -0.867734
 H    1.380558   -1.244485   -2.776684
 H    5.426235   -3.292671    1.156088
 H    5.511859    0.589913   -0.642090
 H   -0.643688    4.671702   -1.551169
 H    0.375351    5.619445   -0.429563
 H   -1.309693    5.233644    0.011443
 H    2.110633    2.345015    3.165627
 H    0.817207    3.456512    2.610402
 H    0.402359    1.963167    3.511215
 H   -6.809903   -0.031930   -0.077305
 H   -6.400753    1.115279   -1.385123
 H   -6.228086   -0.645497   -1.621525
 H   -2.714183   -3.267967   -0.357653
 H   -0.992917   -4.111928    2.032778
 H   -1.266356   -5.073768    0.560236
 H   -2.616606   -4.708193    1.647453
 H    0.752204   -2.560685    1.317492
 H    3.038198   -3.498789    0.587675
 H    6.681759   -1.237402    0.514216
 H    1.864876    0.680225   -1.442477
 H    3.424801    1.118974   -2.175359
 H    2.272148    1.927581    0.413815
 H    3.912446    1.963099    0.183241
 H    3.752689    3.450801   -1.681893
 H    2.894385    4.118742   -0.255885
 H    1.969032    3.342414   -1.558400
