104 
5ovp_ligand_ani.xyz
 C   -5.259629    1.181821    0.450232
 O   -4.969038    1.213792    1.647274
 C   -6.233567    2.163178   -0.165424
 N   -4.725090    0.297274   -0.418022
 C   -3.952887   -0.862720   -0.014091
 C   -2.482245   -0.497058    0.279427
 O   -1.539880   -1.026433   -0.318389
 C   -4.078526   -1.989208   -1.048281
 C   -3.547328   -1.713941   -2.463115
 C   -4.480904   -0.963959   -3.407702
 O   -5.433125   -0.277460   -3.046711
 N   -4.173232   -1.092946   -4.720135
 N   -2.289692    0.391194    1.272391
 C   -1.000018    1.009523    1.539813
 C   -0.074990    0.176111    2.453382
 O    0.729236    0.726898    3.208838
 C   -1.148417    2.424411    2.106014
 C   -1.981084    3.399261    1.260946
 C   -1.484169    3.477216   -0.183623
 C   -1.942758    4.783760    1.911950
 N   -0.121969   -1.164264    2.300446
 C    0.868975   -2.060013    2.883857
 C    1.332822   -3.067332    1.808318
 O    1.461570   -4.266275    2.003852
 C    0.366092   -2.702927    4.189839
 C   -0.837059   -3.623439    3.985043
 C    1.494090   -3.415129    4.935527
 N    1.615405   -2.498849    0.596147
 C    1.970419   -3.303214   -0.558514
 C    3.123288   -2.750321   -1.395712
 O    3.645629   -3.450142   -2.254638
 C    0.786689   -3.473113   -1.538730
 O    0.418918   -2.201452   -2.059802
 C   -0.407666   -4.183583   -0.924550
 N    3.441631   -1.449862   -1.208134
 C    4.161471   -0.699152   -2.231513
 C    4.445516    0.680763   -1.623162
 O    5.502565    0.948167   -1.080838
 C    3.349401   -0.663470   -3.539671
 O    2.014981   -0.234321   -3.331022
 N    3.381068    1.542232   -1.660102
 C    3.166960    2.471621   -0.564428
 C    2.472689    1.730031    0.586102
 O    2.406561    2.406614    1.724781
 C    2.401526    3.700949   -1.083912
 C    2.141713    4.854125   -0.102841
 C    3.432340    5.377064    0.529447
 C    1.404088    5.984537   -0.826165
 O    2.030761    0.602575    0.467132
 H   -5.792938    3.165318   -0.143306
 H   -6.486748    1.906884   -1.200361
 H   -7.140326    2.189071    0.444614
 H   -5.098704    0.269792   -1.366328
 H   -4.370558   -1.215935    0.939098
 H   -5.134040   -2.278834   -1.104778
 H   -3.539378   -2.853988   -0.647382
 H   -2.605401   -1.158325   -2.409756
 H   -3.307726   -2.677053   -2.933682
 H   -3.378771   -1.621078   -5.040752
 H   -4.741780   -0.607112   -5.396807
 H   -3.119412    0.773882    1.722985
 H   -0.457736    1.051773    0.585123
 H   -0.142014    2.841581    2.231344
 H   -1.577467    2.364641    3.116024
 H   -3.025411    3.055217    1.256595
 H   -2.046187    4.233341   -0.742490
 H   -1.590836    2.522256   -0.711857
 H   -0.422974    3.756814   -0.207437
 H   -2.552847    5.502412    1.353820
 H   -2.314665    4.752190    2.942394
 H   -0.914135    5.168427    1.937466
 H   -0.716903   -1.551095    1.581863
 H    1.734239   -1.423344    3.126696
 H    0.041461   -1.849150    4.801882
 H   -1.224429   -3.952480    4.955707
 H   -1.649578   -3.111420    3.457104
 H   -0.553022   -4.509898    3.409809
 H    1.842476   -4.283921    4.370937
 H    2.343971   -2.741550    5.095097
 H    1.143352   -3.752750    5.917259
 H    1.368433   -1.526002    0.459542
 H    2.269790   -4.288634   -0.190590
 H    1.173401   -4.057789   -2.382104
 H   -0.234555   -1.807668   -1.452294
 H   -0.107500   -5.126037   -0.457328
 H   -0.884432   -3.554690   -0.169184
 H   -1.148528   -4.393553   -1.703112
 H    2.971466   -0.923163   -0.482466
 H    5.124485   -1.181490   -2.410617
 H    3.818296    0.030279   -4.245852
 H    3.365330   -1.667433   -3.977088
 H    1.501903   -0.985574   -2.966431
 H    2.555739    1.182496   -2.138864
 H    4.159965    2.768207   -0.208492
 H    1.915501    1.849035    2.381412
 H    2.989038    4.084382   -1.928323
 H    1.442435    3.365740   -1.511298
 H    1.491726    4.490802    0.704803
 H    3.228189    6.255554    1.151567
 H    4.148271    5.677029   -0.246564
 H    3.911019    4.626521    1.165046
 H    1.177509    6.808239   -0.140089
 H    2.018932    6.384617   -1.642603
 H    0.458791    5.639563   -1.262651
