49 
5owa_ligand_xtb.xyz
 C   -6.457145   -0.200497    0.022966
 C   -2.524435   -3.155312   -0.180792
 C    3.987859   -2.745936   -2.002689
 C    2.594864   -1.956308    2.785263
 C    1.305547    3.763564    0.030036
 C    3.262031   -2.394794    0.390376
 C    3.074043    1.869113   -0.328033
 C    3.674974   -0.432971   -1.099434
 C    3.019461   -0.056703    1.211301
 C   -1.596702   -0.026416   -0.149033
 C   -5.067546   -0.689770   -0.039926
 C    1.708634    2.485341   -0.171964
 C   -3.332164   -1.921644   -0.127200
 C   -0.467817    2.105356   -0.123388
 C   -2.916416   -0.600887   -0.115845
 C    3.175425   -1.878999   -1.045990
 C    2.483652   -1.483565    1.339408
 N   -4.688431   -1.931273   -0.078794
 N    0.700119    1.577355   -0.263836
 N   -1.608865    1.372877   -0.126983
 N    2.881154    0.405825   -0.185404
 O   -0.566918   -0.668642   -0.184174
 O   -4.043612    0.180726   -0.059438
 S   -0.422667    3.844095    0.119080
 H   -7.129643   -1.051743    0.027198
 H   -6.672761    0.434115   -0.835247
 H   -6.607444    0.390753    0.925062
 H   -1.851315   -3.197951    0.673481
 H   -1.912939   -3.161901   -1.081170
 H   -3.184153   -4.016941   -0.175395
 H    3.626800   -3.769532   -1.977132
 H    3.903776   -2.381602   -3.023161
 H    5.038503   -2.749089   -1.722878
 H    3.631786   -1.958886    3.112906
 H    2.206866   -2.965985    2.879160
 H    2.025248   -1.310386    3.448119
 H    1.892811    4.652855    0.126207
 H    4.307636   -2.445855    0.702043
 H    2.854930   -3.403870    0.437976
 H    3.782078    2.244757    0.413270
 H    3.471991    2.089836   -1.322492
 H    3.575317   -0.043818   -2.114557
 H    4.726924   -0.381700   -0.805012
 H    2.450038    0.615306    1.855524
 H    4.074321   -0.014544    1.496035
 H    2.125193   -1.890524   -1.357391
 H    1.428862   -1.480184    1.043352
 H   -2.501045    1.843845   -0.063506
 H    1.849712    0.299913   -0.403989
