21 
5owf_ligand_xtb.xyz
 N    0.794743    1.674091    0.384224
 C    1.147429    0.319329    0.864287
 C    1.748848   -0.500579   -0.289765
 O    1.656269   -1.684875   -0.390360
 C   -0.063255   -0.362951    1.514632
 C   -1.122196   -0.939496    0.564588
 C   -1.918595    0.054310   -0.246641
 O   -1.523412    1.199157   -0.511456
 N   -3.088656   -0.370470   -0.699621
 O    2.405490    0.289131   -1.136840
 H   -0.250034    1.571610   -0.062387
 H    1.457570    1.985827   -0.332061
 H    0.765399    2.357107    1.142309
 H    1.947460    0.390684    1.612936
 H   -0.530737    0.345969    2.200817
 H    0.310886   -1.197689    2.107945
 H   -1.815624   -1.531159    1.163671
 H   -0.641513   -1.630471   -0.133377
 H   -3.440170   -1.294690   -0.512620
 H   -3.647565    0.246204   -1.272064
 H    2.841556   -0.219723   -1.840739
