40 
5ows_ligand_xtb.xyz
 O   -6.507001    1.762086    0.048577
 C   -5.712916    0.867671    0.201970
 N   -5.703420   -0.056528    1.213765
 C   -4.524364   -0.884451    1.187265
 N   -4.643128    0.579116   -0.605240
 C   -3.976091   -0.660801   -0.250032
 C   -4.424681   -1.785420   -1.190058
 C   -2.471920   -0.466125   -0.225619
 C   -1.960008    0.788682    0.090247
 C   -0.598783    1.012468    0.143603
 C   -1.579138   -1.505439   -0.462127
 C   -0.216999   -1.288353   -0.407123
 C    0.295069   -0.025078   -0.115410
 C    1.750755    0.151165   -0.074894
 N    2.261753    1.413097   -0.212340
 C    3.618263    1.716821   -0.180429
 O    3.989455    2.863489   -0.312502
 N    2.496458   -0.887253    0.081698
 C    3.853830   -0.723341    0.127944
 C    4.461918    0.542166    0.013098
 C    4.664107   -1.852352    0.299928
 C    6.031888   -1.716970    0.356642
 C    6.629632   -0.461788    0.245015
 C    5.850724    0.660172    0.073445
 H   -6.201414    0.119912    2.068787
 H   -3.785293   -0.571207    1.937248
 H   -4.777004   -1.933191    1.362916
 H   -4.610972    0.926465   -1.548394
 H   -4.015483   -1.631510   -2.186156
 H   -4.107011   -2.757144   -0.823688
 H   -5.510925   -1.781783   -1.251981
 H   -2.643666    1.598959    0.294151
 H   -0.246864    1.996451    0.418195
 H   -1.939587   -2.494819   -0.692166
 H    0.479033   -2.090948   -0.590529
 H    1.641293    2.197080   -0.374129
 H    4.187620   -2.816021    0.386031
 H    6.652232   -2.591274    0.489868
 H    7.704439   -0.373287    0.293152
 H    6.284628    1.644517   -0.017875
