31 
5oxk_ligand_ani.xyz
 N    3.109275    0.053481    0.454308
 C    2.258727   -0.682969   -0.533543
 C    1.018602   -1.000515    0.309017
 O    1.177506   -1.281866    1.490928
 C    2.918572   -1.963371   -1.030845
 N   -0.201372   -0.910994   -0.274269
 C   -1.360517   -0.731049    0.575019
 C   -2.652829   -0.962453   -0.183020
 O   -3.717564   -1.155318    0.346941
 C   -1.420665    0.654926    1.262898
 C   -1.258330    1.845151    0.316314
 C    0.185563    2.140491   -0.071826
 O    1.137234    1.897733    0.664671
 N    0.352872    2.723896   -1.283958
 O   -2.510799   -0.870829   -1.521934
 H    2.659553    0.986838    0.595283
 H    3.006419   -0.494490    1.335890
 H    4.090034    0.150472    0.155498
 H    2.007946   -0.023148   -1.368724
 H    2.249365   -2.490325   -1.716876
 H    3.144864   -2.635523   -0.195715
 H    3.847014   -1.743684   -1.568589
 H   -0.274812   -0.628224   -1.241550
 H   -1.316111   -1.481584    1.368756
 H   -2.391052    0.716391    1.766820
 H   -0.641578    0.693397    2.027230
 H   -1.635197    2.748908    0.811709
 H   -1.864401    1.711751   -0.588472
 H    1.287013    2.965001   -1.580083
 H   -0.421471    2.945399   -1.888222
 H   -3.398775   -1.004889   -1.894462
