28 
5prc_ligand_dft.xyz
 N   -1.316025    0.860644    0.002360
 C   -0.065203    1.267492   -0.000328
Cl    0.163334    3.002146   -0.002718
 N    1.039886    0.554371   -0.001003
 C    0.809074   -0.780182    0.000992
 N   -0.401716   -1.353336    0.003486
 C   -1.422869   -0.489105    0.003674
 N    1.867220   -1.612251    0.000516
 C    3.287751   -1.251740   -0.001113
 C    3.691470   -0.502152   -1.272893
 C    3.693917   -0.500199    1.268799
 N   -2.666090   -1.000888    0.003871
 C   -3.878299   -0.200148    0.019786
 C   -5.100163   -1.106666   -0.020948
 H    1.616566   -2.588698    0.002843
 H    3.804093   -2.218353   -0.000948
 H    3.405749   -1.070119   -2.163791
 H    3.207176    0.476382   -1.309269
 H    4.776749   -0.356599   -1.288726
 H    3.210388    0.478762    1.304120
 H    3.409035   -1.066409    2.161071
 H    4.779332   -0.355437    1.282807
 H   -2.727712   -2.007239    0.018475
 H   -3.874001    0.479957   -0.838556
 H   -3.893087    0.426203    0.918857
 H   -5.107958   -1.717956   -0.929924
 H   -5.126521   -1.774502    0.847243
 H   -6.013490   -0.506045   -0.010406
