45 
5pzm_ligand_ani.xyz
 C    4.565446   -0.535076    0.197297
 C    1.892088   -1.676071   -0.591937
 C   -4.596967    0.012318    1.027250
 C   -4.572898   -1.588997   -0.776454
 C   -6.623749   -1.010013    0.296395
 C   -5.973402   -0.140011    1.155891
 C   -5.946678   -1.742935   -0.667607
 C    5.874647   -0.054411    0.162624
 C    3.513806    0.215362   -0.332777
 C    3.800650    1.465291   -0.893527
 C   -1.572882    0.557638    0.030292
 C   -2.440019   -0.511361   -0.096626
 C   -0.247199    0.007779   -0.129491
 O   -1.753232   -1.648761   -0.410602
 C   -0.434335   -1.340125   -0.407754
 C   -1.832209    2.009427    0.184962
 C    1.044599    0.534372   -0.091861
 C    7.035765   -0.829256    0.719722
 C    2.122905   -0.310695   -0.330211
 C   -3.888514   -0.690453    0.051584
 C    0.617677   -2.216025   -0.645123
 O   -0.970293    2.783621    0.585589
 O    8.061028   -0.314475    1.079596
 N   -3.074891    2.429496   -0.178416
 O    6.878555   -2.169354    0.800117
 F   -7.954656   -1.157250    0.406106
 C    6.138857    1.201658   -0.380964
 C    5.101989    1.954982   -0.919339
 C   -3.469596    3.817465   -0.113731
 H    4.333979   -1.475878    0.698511
 H    2.750994   -2.316164   -0.780698
 H   -4.069819    0.675359    1.706514
 H   -4.021691   -2.162347   -1.515942
 H   -6.541443    0.403411    1.901741
 H   -6.498689   -2.421880   -1.310712
 H    2.991946    2.049471   -1.327091
 H    1.191944    1.583954    0.144560
 H    0.450885   -3.267535   -0.852993
 H   -3.719967    1.743715   -0.541829
 H    6.066666   -2.432013    0.344915
 H    7.161436    1.566260   -0.370861
 H    5.304357    2.930144   -1.352707
 H   -4.281416    3.967341    0.607621
 H   -2.599618    4.391182    0.209188
 H   -3.791774    4.180310   -1.095570
