66 
5q0i_ligand_ani.xyz
 O    0.751517   -0.736515    2.177243
 S    0.797112   -1.467848    0.921773
 O    0.038328   -2.696993    0.737082
 C    2.499669   -1.805652    0.535465
 C    3.461528   -0.838555    0.799988
 C    4.787537   -1.095361    0.474518
 C    5.164783   -2.310564   -0.107877
 C    6.607166   -2.580944   -0.458954
 C    4.177434   -3.265982   -0.354898
 C    2.845867   -3.022340   -0.035987
 N    0.323076   -0.452188   -0.326189
 C   -0.146262   -1.059639   -1.564612
 C   -1.668770   -1.205061   -1.697042
 N   -2.380701   -1.046895   -0.559077
 C   -3.829149   -1.095364   -0.490858
 C   -4.253510   -1.919862    0.743904
 C   -3.629906   -3.322348    0.715713
 C   -5.774751   -2.033664    0.877941
 C   -4.423949    0.332077   -0.549766
 C   -3.861265    1.259667    0.533177
 C   -4.214017    0.952285   -1.936303
 O   -2.165263   -1.450864   -2.787443
 C    0.644031    0.939484   -0.295748
 C    1.461185    1.486788   -1.276135
 C    1.744203    2.852594   -1.265892
 C    0.117493    1.767446    0.705367
 C    0.355090    3.133621    0.686715
 O   -0.161822    4.007951    1.587553
 C   -1.079633    3.495499    2.524274
 C    1.197341    3.688796   -0.304876
 O    1.404522    5.028107   -0.232152
 C    2.262692    5.600216   -1.193933
 H    3.175441    0.102883    1.262830
 H    5.547850   -0.343423    0.674846
 H    6.982816   -1.850143   -1.184396
 H    7.249011   -2.521205    0.427522
 H    6.731180   -3.576497   -0.894033
 H    4.456402   -4.216750   -0.803724
 H    2.074121   -3.766003   -0.217121
 H    0.303255   -2.050205   -1.677920
 H    0.177800   -0.448434   -2.407984
 H   -1.883465   -0.909616    0.308446
 H   -4.154626   -1.626277   -1.396279
 H   -3.862396   -1.408894    1.638569
 H   -3.946893   -3.872136   -0.180564
 H   -2.535809   -3.292895    0.729745
 H   -3.961714   -3.898802    1.586477
 H   -6.259546   -1.065908    1.041218
 H   -6.212089   -2.486326   -0.021114
 H   -6.032822   -2.673976    1.727892
 H   -5.507302    0.234461   -0.398191
 H   -3.967436    0.840438    1.540703
 H   -2.794140    1.463586    0.359204
 H   -4.388599    2.219784    0.512068
 H   -3.153450    1.160704   -2.120999
 H   -4.558469    0.286175   -2.734976
 H   -4.759212    1.898449   -2.017062
 H    1.905635    0.849972   -2.036172
 H    2.390397    3.252617   -2.039453
 H   -0.454385    1.308624    1.503440
 H   -1.949283    3.040843    2.028948
 H   -0.609321    2.749521    3.178943
 H   -1.412372    4.344332    3.123568
 H    3.271635    5.169784   -1.137367
 H    1.870729    5.467441   -2.211357
 H    2.309561    6.664732   -0.960562
