71 
5q0j_ligand_ani.xyz
 N   -1.132122   -0.259469    2.836958
 C    0.903052   -0.731833    1.569468
 C   -1.419980    0.450758   -1.709491
 C   -1.128287   -0.738934   -0.768674
 C   -2.576236    0.119895    1.107485
 C   -2.423887    0.102462    2.502902
 C    4.692062   -0.535332    0.472091
 C   -0.956809    2.818325   -2.088447
 C    5.608164   -1.585081    0.340736
 C    5.083737    0.751735    0.082619
 C   -1.875088   -3.054375   -0.032060
 C    0.278294    3.720423   -2.152403
 C   -4.841952    0.785986    1.317495
 C    6.359212    0.980561   -0.419573
 C   -0.519350   -0.431230    1.690502
 C   -1.957319   -1.985375   -1.129445
 C   -3.778459    0.459505    0.488145
 C   -3.509529    0.431860    3.323582
 C   -1.468784   -2.563512   -2.463941
 C   -2.078911    3.492335   -1.278627
 C   -4.706477    0.770654    2.717703
 C   -2.232272   -3.830643   -2.851530
 C   -2.637828   -4.325050   -0.417742
 C   -1.603985    3.913513    0.115388
 C    0.749268    4.172567   -0.764736
 C   -0.385482    4.836266    0.022357
 C   -2.144371   -4.889295   -1.750991
 N   -0.605536    1.520028   -1.527952
 N   -1.341210   -0.248890    0.594260
 O   -2.334535    0.456829   -2.523181
 C    1.606387   -1.612576    2.342569
 C    2.988801   -1.660669    2.016022
 C    6.881690   -1.356355   -0.169131
 C    7.261391   -0.072264   -0.547982
 C    3.345915   -0.788229    1.021034
 S    1.960534    0.101430    0.471008
 H   -0.065172   -0.988868   -0.823620
 H   -1.329402    2.620888   -3.098344
 H    5.315554   -2.593212    0.624785
 H    4.380350    1.573800    0.188525
 H   -2.262595   -2.660701    0.915369
 H   -0.816394   -3.304468    0.138191
 H    1.080680    3.202978   -2.690921
 H    0.020043    4.609525   -2.745030
 H   -5.798738    1.057635    0.880204
 H    6.648179    1.986357   -0.712490
 H   -3.006605   -1.677455   -1.243221
 H   -3.871207    0.469240   -0.594899
 H   -3.395846    0.419945    4.403625
 H   -1.559703   -1.806374   -3.250271
 H   -0.397575   -2.800155   -2.363469
 H   -2.416849    4.379128   -1.833168
 H   -2.933757    2.807095   -1.210952
 H   -5.560413    1.031366    3.338470
 H   -3.287928   -3.572745   -3.022497
 H   -1.851349   -4.227188   -3.800413
 H   -2.545606   -5.075355    0.376950
 H   -3.708894   -4.087350   -0.498777
 H   -2.420584    4.408074    0.653856
 H   -1.345431    3.017828    0.699581
 H    1.596547    4.860301   -0.868813
 H    1.129033    3.307049   -0.202088
 H   -0.678960    5.765634   -0.486549
 H   -0.040900    5.120740    1.023748
 H   -1.097486   -5.207504   -1.640555
 H   -2.716662   -5.783124   -2.028032
 H    0.044646    1.480795   -0.750947
 H    1.129682   -2.205046    3.117135
 H    3.708134   -2.289201    2.530640
 H    7.579694   -2.183495   -0.267884
 H    8.257547    0.108105   -0.943623
