61 
5q0n_ligand_ani.xyz
 N   -1.598231   -0.297298   -0.482995
 N   -2.413293    0.023388   -2.553470
 C   -1.993619   -1.542083   -0.940669
 C   -2.515516   -1.316983   -2.221092
 C    0.223098   -0.718764    1.066068
 C   -1.117658    0.016147    0.862594
 C   -1.933327   -2.811376   -0.362106
 C   -3.035917   -2.381488   -2.967521
 C    6.789037   -1.481959    0.236996
 C   -2.998332   -3.630309   -2.394862
 C    3.574754    0.388560   -0.135993
 C    3.095228   -1.646655    1.062750
 C    4.434044   -1.990869    0.985685
 C   -2.359558    2.908855   -0.726727
 O    7.111184   -2.665107    0.799150
 O    7.617221   -0.781317   -0.299025
 C    5.348671   -1.151966    0.347875
 C    2.640321   -0.449231    0.498774
 N    1.300009   -0.057209    0.536841
 O    0.290611   -1.803074    1.620986
 C   -2.136154   -0.329979    1.961622
 C   -1.633657    0.139586    3.331817
 C   -2.634697   -0.196396    4.439872
 C   -4.017960    0.387639    4.141722
 C   -4.521786   -0.063195    2.768028
 C   -3.511990    0.279505    1.670252
 C   -1.868166    0.584053   -1.509260
 F   -3.479429   -4.692535   -3.051872
 C   -2.452243   -3.842459   -1.114615
 F   -2.446808   -5.093129   -0.641710
 C   -1.498686    2.010894   -1.357495
 C   -1.978086    4.227015   -0.508285
 C   -0.720687    4.645758   -0.928116
Cl   -0.230596    6.291640   -0.647250
 C    0.149004    3.774490   -1.571933
 C   -0.251882    2.462045   -1.792851
Cl    3.059525    1.895928   -0.846106
 C    4.911573    0.046701   -0.214031
 H   -0.929596    1.091297    0.877311
 H   -1.476281   -2.993615    0.603128
 H   -3.452266   -2.239965   -3.958532
 H    2.385237   -2.296338    1.554514
 H    4.776076   -2.922726    1.423994
 H   -3.340152    2.566218   -0.401957
 H    8.067020   -2.763938    0.660218
 H    1.109482    0.823804    0.080440
 H   -2.234543   -1.423541    1.988146
 H   -1.480704    1.229454    3.295194
 H   -0.659517   -0.315579    3.544887
 H   -2.714620   -1.290063    4.525710
 H   -2.265181    0.164756    5.407182
 H   -3.954868    1.485467    4.156337
 H   -4.731370    0.105061    4.925565
 H   -4.684876   -1.150788    2.778285
 H   -5.493743    0.394107    2.546396
 H   -3.871218   -0.056130    0.689221
 H   -3.405290    1.374561    1.614842
 H   -2.646580    4.921681   -0.011927
 H    1.131117    4.112141   -1.886684
 H    0.407622    1.773849   -2.317188
 H    5.622223    0.701217   -0.708290
