61 
5q0n_ligand_xtb.xyz
 N   -1.516075   -0.339977   -0.404324
 N   -1.615487    0.148218   -2.585622
 C   -1.577375   -1.540460   -1.072115
 C   -1.662906   -1.206883   -2.446577
 C    0.063558   -0.809685    1.348646
 C   -1.306449   -0.178504    1.016300
 C   -1.548455   -2.859222   -0.643475
 C   -1.761311   -2.197941   -3.418030
 C    6.670562   -0.895146    0.634398
 C   -1.754222   -3.502337   -2.981653
 C    3.267226    0.531376    0.064917
 C    3.012855   -1.466118    1.379009
 C    4.380842   -1.648738    1.352705
 C   -2.100548    2.749621   -0.143051
 O    7.112486   -1.980937    1.283562
 O    7.416209   -0.131971    0.073877
 C    5.198955   -0.742611    0.684544
 C    2.432408   -0.373742    0.737542
 N    1.066016   -0.128114    0.728468
 O    0.203220   -1.784410    2.044320
 C   -2.426594   -0.782643    1.882904
 C   -2.341962   -0.209186    3.299267
 C   -3.405649   -0.841161    4.192338
 C   -4.797684   -0.610698    3.613011
 C   -4.881162   -1.167595    2.195405
 C   -3.818939   -0.530020    1.304261
 C   -1.531251    0.637169   -1.377750
 F   -1.847620   -4.500779   -3.879307
 C   -1.640896   -3.826047   -1.621860
 F   -1.618775   -5.120878   -1.259033
 C   -1.392506    2.068938   -1.131245
 C   -1.916828    4.107011    0.043272
 C   -1.025841    4.795655   -0.765655
Cl   -0.786500    6.487192   -0.524004
 C   -0.337943    4.140717   -1.777349
 C   -0.526435    2.785775   -1.958249
Cl    2.564193    1.903958   -0.741366
 C    4.631696    0.353856    0.036406
 H   -1.234047    0.896030    1.219035
 H   -1.439446   -3.149659    0.387514
 H   -1.836076   -1.960331   -4.465194
 H    2.376131   -2.163526    1.897622
 H    4.822610   -2.496338    1.851161
 H   -2.830723    2.231496    0.459510
 H    8.078939   -2.032080    1.217549
 H    0.816213    0.687323    0.175622
 H   -2.266017   -1.861856    1.950057
 H   -2.492705    0.873597    3.265855
 H   -1.350971   -0.401932    3.713249
 H   -3.217192   -1.913449    4.271749
 H   -3.342781   -0.415316    5.195229
 H   -5.011187    0.460815    3.595377
 H   -5.547589   -1.089718    4.244593
 H   -4.729820   -2.248705    2.220003
 H   -5.871345   -0.978213    1.776951
 H   -3.894918   -0.941456    0.295671
 H   -4.004637    0.545406    1.244237
 H   -2.468026    4.632914    0.806817
 H    0.336592    4.690011   -2.414615
 H   -0.008570    2.260476   -2.744908
 H    5.276977    1.049229   -0.477971
