76 
5q0o_ligand_ani.xyz
 C    2.348726    1.641816    3.899558
 C    1.625087    1.195249    2.786619
 C    2.263807    1.087481    1.543426
 C    0.143462    0.481546    1.417330
 C    1.407781    0.763236   -0.787937
 N    2.649549   -1.335200   -0.775557
 C    1.445435    2.227672   -1.271234
 C    1.182970    3.709103   -3.322025
 C    0.388236    3.083927   -0.556606
 C    3.395953   -3.649241   -0.892250
 C    4.591549   -4.591587   -1.056488
 C    6.112510   -2.812948   -0.105329
 C   -3.583663   -0.898310   -0.171510
 C   -2.399370   -1.561885   -0.507797
 C    3.679621    1.976351    3.720258
 C    4.298390    1.881894    2.459837
 C    3.597081    1.441762    1.347501
 N    0.293318    0.834644    2.668053
 N    1.299571    0.605845    0.665091
 C    2.636044   -0.055064   -1.248052
 O    3.512855    0.390878   -1.972273
 C    3.815515   -2.181387   -0.966848
 C    5.684398   -4.281963   -0.028755
 C    4.910671   -1.881659    0.065725
 C    1.219855    2.276364   -2.789242
 C    0.112190    4.534739   -2.607973
 C    0.341241    4.515545   -1.096697
 C   -1.120175   -0.024446    0.846820
 C   -1.183965   -1.138277    0.001527
 C   -4.849098   -1.389722   -0.802113
 O   -4.805899   -1.992299   -1.861232
 C   -6.173267   -1.136587   -0.142848
 C   -7.286873   -1.013477   -0.977192
 C   -8.545713   -0.782731   -0.439811
 C   -8.708956   -0.704300    0.941775
 C   -7.609925   -0.867037    1.780751
 C   -6.345389   -1.085703    1.242770
 C   -3.520648    0.213140    0.673411
 C   -2.304810    0.628243    1.193328
 H    1.867023    1.719055    4.869939
 H    0.521886    0.285631   -1.213830
 H    2.117821   -1.499544    0.070411
 H    2.440319    2.640023   -1.048813
 H    2.166345    4.176426   -3.164396
 H    1.010067    3.705830   -4.405083
 H    0.578067    3.106012    0.523381
 H   -0.597836    2.615725   -0.695482
 H    2.927693   -3.820936    0.089775
 H    2.629416   -3.846123   -1.650228
 H    5.004585   -4.476865   -2.069568
 H    4.265624   -5.634876   -0.969519
 H    6.872658   -2.593739    0.653812
 H    6.580929   -2.621209   -1.081854
 H   -2.451882   -2.403528   -1.189536
 H    4.258306    2.324496    4.572324
 H    5.342980    2.163329    2.360695
 H    4.061227    1.386499    0.365674
 H    4.206626   -1.960160   -1.967004
 H    5.295151   -4.487027    0.979300
 H    6.547278   -4.943768   -0.172284
 H    5.206322   -0.826800   -0.018524
 H    4.486119   -2.012966    1.074105
 H    0.257228    1.787274   -3.005586
 H    1.996705    1.695943   -3.296176
 H    0.100133    5.564674   -2.985113
 H   -0.877332    4.107353   -2.826637
 H   -0.442078    5.083955   -0.580374
 H    1.293008    5.017585   -0.867601
 H   -0.280631   -1.684926   -0.263659
 H   -7.141066   -1.103629   -2.050170
 H   -9.404008   -0.670682   -1.097917
 H   -9.694009   -0.525189    1.364279
 H   -7.732865   -0.815106    2.858721
 H   -5.490172   -1.220901    1.900997
 H   -4.424389    0.762878    0.922405
 H   -2.261972    1.469178    1.878887
