62 
5q0r_ligand_ani.xyz
 C    1.733929   -0.151766   -0.417629
 C   -5.031923   -0.620003    0.483167
 C   -0.130695   -0.955812   -1.404037
 C    1.271855   -0.982105   -1.430738
 C    3.128945    0.110660    0.003636
 C    0.653809    1.428608    1.256830
 C   -2.469390   -1.699466   -1.506774
 C   -1.142740   -1.663773   -2.251389
 C   -5.330021    0.171327    1.588203
 C    0.824941    2.841507    0.720118
 C   -5.771086   -2.582983    1.688572
 C   -0.282043    3.609014    0.352420
 C    7.398201   -0.735947    0.620385
 F   -4.996530   -2.759308   -0.520274
 C   -5.263867   -1.987588    0.544430
 C   -6.061369   -1.783974    2.790442
 C   -5.843698   -0.409428    2.742281
 S   -4.368220    0.123791   -0.983257
 O   -4.367557    1.559953   -0.769858
 O   -5.011153   -0.472621   -2.135554
 N   -2.779817   -0.354084   -1.019730
 O    3.465496    0.512873    1.112825
 N    4.054949   -0.144808   -0.961941
 C    5.461529    0.123310   -0.739465
 C    6.238486   -1.020543   -0.104505
 C    5.851493   -2.353251   -0.251179
 C    6.609831   -3.375023    0.311117
 C    7.765381   -3.081567    1.028309
 C    8.158259   -1.755688    1.182601
 N    0.630575    0.389091    0.228716
 C    2.099060    3.400626    0.588043
 C    2.259376    4.685108    0.076542
 C    1.149959    5.435390   -0.296633
 C   -0.123304    4.895356   -0.154135
 C   -0.490998   -0.107723   -0.384492
 C   -1.893986    0.163481    0.026901
 H    1.868286   -1.601946   -2.093418
 H   -0.280683    1.352379    1.822335
 H    1.474591    1.189691    1.934607
 H   -2.420579   -2.393399   -0.656152
 H   -3.274966   -2.027936   -2.165554
 H   -0.824220   -2.684679   -2.487723
 H   -1.276834   -1.140409   -3.207931
 H   -5.153878    1.240974    1.520020
 H   -5.931796   -3.656574    1.694066
 H   -1.288911    3.212574    0.477087
 H    7.711731    0.299456    0.741893
 H   -6.462982   -2.240095    3.691357
 H   -6.075411    0.211273    3.602559
 H    3.734121   -0.300360   -1.903712
 H    5.543301    0.997341   -0.086209
 H    5.905751    0.390080   -1.705311
 H    4.947190   -2.592046   -0.804467
 H    6.294269   -4.408100    0.186452
 H    8.357174   -3.882145    1.464674
 H    9.059412   -1.514515    1.741989
 H    2.967737    2.824531    0.898683
 H    3.257331    5.104822   -0.024783
 H    1.276422    6.440164   -0.692140
 H   -0.998393    5.476663   -0.432802
 H   -2.124874   -0.301479    1.001355
 H   -2.077349    1.237347    0.130943
