69 
5q0u_ligand_dft.xyz
 C    4.125136   -1.084790   -1.023884
 C    2.776609   -1.320198   -1.720466
 C    2.420488   -2.811661   -1.701185
 C    1.710913   -0.356062   -1.171026
 C    0.398589   -0.342543   -1.979079
 C    2.013843    0.260009    1.287421
 C   -0.455289   -3.169264    2.705885
 C   -0.074894   -2.520545    0.387902
 C    4.022450    1.652107    1.697463
 C    4.765515    2.811636    1.518061
 C    4.268097    3.817545    0.695459
 C    2.301844    2.522496    0.251858
 C    3.527409   -3.640235   -2.360857
 C    4.878299   -3.408756   -1.679682
 C    5.237204   -1.920895   -1.663266
 O    0.331476   -0.807714   -3.104709
 N   -0.627440    0.305226   -1.368805
 C   -1.960325    0.389686   -1.957953
 C   -2.649762    1.683552   -1.511730
 C   -3.044037    1.658105   -0.031013
 C   -3.880421    0.428129    0.318431
 C   -3.193145   -0.859818   -0.114048
 C   -2.812049   -0.837495   -1.597482
 O   -5.156301    0.429819   -0.404083
 S   -6.194313    1.603828   -0.074221
 O   -5.988645    2.715658   -0.959879
 O   -7.516414    0.865603   -0.590922
 O   -6.258729    1.777026    1.358928
 N    1.440693   -0.478011    0.261419
 C    0.744185   -1.503413    0.885357
 C    0.952408   -1.313373    2.260349
 N    1.753051   -0.211019    2.479361
 C    2.793021    1.490193    1.056248
 C    3.036179    3.686605    0.063930
Cl    5.200590    5.272975    0.458421
 C    0.346877   -2.163745    3.194202
 C   -0.663281   -3.341901    1.324728
 F   -1.471986   -4.330753    0.927761
 F   -1.072509   -4.014687    3.539495
 H    4.388984   -0.019835   -1.055628
 H    4.035367   -1.355368    0.038484
 H    2.879597   -1.029027   -2.774372
 H    1.472935   -2.974118   -2.223565
 H    2.296794   -3.152081   -0.665226
 H    2.129366    0.645763   -1.304816
 H   -0.257731   -2.685176   -0.666699
 H    4.391177    0.860842    2.341506
 H    5.723519    2.936307    2.010262
 H    1.327876    2.429798   -0.222046
 H    3.601406   -3.365091   -3.422023
 H    3.262973   -4.703101   -2.328231
 H    5.663947   -3.982065   -2.184774
 H    4.828415   -3.780199   -0.646309
 H    6.179739   -1.759902   -1.127977
 H    5.396321   -1.575782   -2.694338
 H   -0.515401    0.535066   -0.392495
 H   -1.804547    0.408685   -3.038929
 H   -3.555247    1.821853   -2.111298
 H   -1.997491    2.539650   -1.712641
 H   -3.574974    2.577146    0.234181
 H   -2.157980    1.632123    0.618761
 H   -4.116445    0.409243    1.386019
 H   -2.297134   -0.976405    0.507963
 H   -3.839212   -1.715228    0.105836
 H   -2.266060   -1.748217   -1.863073
 H   -3.722737   -0.820534   -2.206443
 H   -7.789265    0.211554    0.073060
 H    2.654316    4.487841   -0.558638
 H    0.490549   -2.035308    4.260298
