69 
5q0u_ligand_ani.xyz
 C    4.011618   -0.704490   -1.318255
 C    2.616972   -1.088896   -1.835065
 C    2.429038   -2.603307   -1.697148
 C    1.522825   -0.211804   -1.190025
 C    0.152582   -0.299989   -1.891725
 C    2.189297    0.174282    1.227324
 C    0.146035   -3.574555    2.516478
 C   -0.089439   -2.457467    0.374125
 C    4.183571    1.586584    1.548394
 C    4.894193    2.770987    1.401308
 C    4.288815    3.848473    0.765227
 C    2.294209    2.563042    0.428364
 C    3.505607   -3.350952   -2.486604
 C    4.909666   -2.955473   -2.020449
 C    5.109453   -1.438776   -2.091694
 O   -0.026618   -0.873231   -2.956743
 N   -0.838414    0.362117   -1.240682
 C   -2.163729    0.510627   -1.817965
 C   -2.856726    1.732088   -1.209981
 C   -3.268464    1.503805    0.247727
 C   -4.111377    0.242034    0.421025
 C   -3.431866   -0.979839   -0.178330
 C   -3.025057   -0.749215   -1.636267
 O   -5.386412    0.354968   -0.289223
 S   -6.342789    1.585698    0.072769
 O   -6.150507    2.664155   -0.854590
 O   -7.728861    0.897069   -0.328530
 O   -6.297680    1.802262    1.501035
 N    1.345350   -0.359858    0.262519
 C    0.803362   -1.499677    0.854421
 C    1.375339   -1.582086    2.126419
 N    2.251529   -0.533969    2.324426
 C    2.889891    1.459247    1.043379
 C    2.986354    3.758666    0.286243
Cl    5.168962    5.338580    0.579437
 C    1.039336   -2.640179    2.982590
 C   -0.412108   -3.487096    1.230305
 F   -1.268330   -4.448998    0.860545
 F   -0.218845   -4.608525    3.285363
 H    4.157254    0.381127   -1.383552
 H    4.088834   -0.970743   -0.253550
 H    2.567772   -0.845029   -2.904797
 H    1.430721   -2.890784   -2.046061
 H    2.506046   -2.889051   -0.638176
 H    1.847598    0.821753   -1.339614
 H   -0.500913   -2.434861   -0.629138
 H    4.633655    0.743554    2.067543
 H    5.906581    2.864013    1.781979
 H    1.270955    2.500119    0.065466
 H    3.395882   -3.116065   -3.555803
 H    3.359788   -4.433259   -2.387940
 H    5.672978   -3.473528   -2.614018
 H    5.045455   -3.285764   -0.979937
 H    6.096327   -1.162757   -1.700800
 H    5.088212   -1.116626   -3.143148
 H   -0.656962    0.681943   -0.299353
 H   -2.016112    0.664076   -2.892061
 H   -3.746467    1.966600   -1.802037
 H   -2.186365    2.596457   -1.279623
 H   -3.809260    2.373934    0.637617
 H   -2.376836    1.384902    0.880287
 H   -4.351199    0.078978    1.477237
 H   -2.543730   -1.204153    0.427529
 H   -4.096329   -1.844742   -0.095189
 H   -2.470422   -1.610300   -2.025141
 H   -3.928712   -0.637488   -2.248725
 H   -7.896693    0.173820    0.297814
 H    2.525444    4.610323   -0.201905
 H    1.458327   -2.731771    3.978837
