63 
5q0x_ligand_ani.xyz
 C    5.346497    0.193731   -1.572647
 C    7.622227    0.313841   -0.290748
 C    6.194031    0.309353   -0.461705
 C    5.629076    0.475978    0.816319
 C    6.492580    0.778675    3.146996
 C    1.212434    1.366111   -0.680882
 C    1.233135   -0.467160    0.887140
 C   -3.923094   -1.576202   -0.212408
 C   -3.407556   -2.379799    0.803431
 C   -3.515552   -1.913923   -1.504928
 C   -4.427944    0.971850   -0.069792
 C    3.984002    0.249010   -1.372680
 C    3.418205    0.384843   -0.083943
 C    4.250508    0.513957    1.022591
 N    6.660742    0.581290    1.726607
 C    7.847659    0.483229    1.059234
 C    8.575187    0.165995   -1.403086
 O    8.241575    0.028471   -2.554667
 O    9.893055    0.189441   -1.090842
 C   -0.163764    1.501692   -0.560333
 C    1.934966    0.423391    0.049455
 C   -0.142718   -0.331299    1.007259
 C   -0.843812    0.647078    0.300391
 O   -2.181444    0.694310    0.535923
 C   -2.574279   -3.453448    0.501497
 N   -2.218028   -3.768115   -0.740420
 C   -2.679957   -3.003556   -1.726063
 C   -4.793956   -0.402828    0.047069
 C   -5.590507    1.633649    0.184396
 O   -6.555029    0.736551    0.447014
 N   -6.052276   -0.540092    0.366618
Cl   -3.758109   -2.037231    2.468278
 C   -5.945958    3.086419    0.156937
 C   -6.371325    3.505819   -1.256842
 C   -7.012436    3.446470    1.190348
 C   -3.032110    1.430582   -0.336952
Cl   -4.037173   -0.972074   -2.866403
 C    1.919695   -1.578268    1.639400
 H    5.775600    0.075518   -2.561245
 H    5.944399    1.705303    3.346102
 H    5.946547   -0.058842    3.593503
 H    7.476466    0.845304    3.615723
 H    1.750943    2.028484   -1.355485
 H    3.318230    0.168185   -2.229465
 H    3.834449    0.651351    2.018263
 H    8.763365    0.547774    1.641491
 H   10.025409    0.304675   -0.139838
 H   -0.683984    2.262778   -1.132990
 H   -0.698177   -1.003620    1.656987
 H   -2.186516   -4.079065    1.304416
 H   -2.379806   -3.259687   -2.740005
 H   -5.025055    3.633205    0.402103
 H   -5.586557    3.272305   -1.983064
 H   -7.283778    2.977267   -1.555066
 H   -6.572459    4.581965   -1.295039
 H   -7.958220    2.944434    0.966138
 H   -6.698826    3.151520    2.196147
 H   -7.187897    4.527897    1.185143
 H   -2.921508    2.507549   -0.152883
 H   -2.762362    1.219929   -1.379380
 H    2.674075   -2.070970    1.018539
 H    2.432504   -1.202751    2.531613
 H    1.193243   -2.325224    1.970611
