63 
5q0x_ligand_xtb.xyz
 C    4.894259    1.188879   -1.070986
 C    7.244711    0.463969   -0.220676
 C    5.813449    0.572763   -0.224520
 C    5.354086   -0.125592    0.912899
 C    6.393031   -1.405780    2.780155
 C    0.960598    1.551378    0.738740
 C    0.956984   -0.848609    0.847227
 C   -3.229269   -1.071240   -1.001063
 C   -3.135547   -2.434106   -0.708529
 C   -2.138982   -0.495827   -1.652803
 C   -4.452267    0.784470    0.320650
 C    3.557830    1.092241   -0.761445
 C    3.100604    0.390997    0.367640
 C    4.004196   -0.223423    1.219555
 N    6.446941   -0.629916    1.574531
 C    7.566025   -0.278487    0.896898
 C    8.126202    1.051509   -1.226510
 O    7.743580    1.714457   -2.154441
 O    9.455197    0.815138   -1.073141
 C   -0.393347    1.598205    1.010797
 C    1.654143    0.349109    0.654096
 C   -0.398639   -0.795591    1.124211
 C   -1.089472    0.410192    1.193879
 O   -2.428742    0.307936    1.448062
 C   -1.987664   -3.130482   -1.066521
 N   -0.964503   -2.556072   -1.668496
 C   -1.027493   -1.271403   -1.956467
 C   -4.405525   -0.291804   -0.611600
 C   -5.782163    1.118030    0.350679
 O   -6.450889    0.322017   -0.496631
 N   -5.602404   -0.547324   -1.074059
Cl   -4.414294   -3.233187    0.108834
 C   -6.537112    2.172046    1.090011
 C   -6.916730    3.297464    0.122631
 C   -7.781952    1.569029    1.741926
 C   -3.297922    1.358544    1.074342
Cl   -2.171511    1.164993   -2.099059
 C    1.605042   -2.193018    0.703514
 H    5.240857    1.723322   -1.940298
 H    5.903245   -0.838966    3.575285
 H    5.831446   -2.328460    2.614718
 H    7.402685   -1.659455    3.098262
 H    1.501369    2.476690    0.602659
 H    2.824387    1.554657   -1.405540
 H    3.661915   -0.742043    2.101830
 H    8.526135   -0.587621    1.273637
 H    9.643348    0.267681   -0.303024
 H   -0.881314    2.558034    1.086607
 H   -0.955419   -1.708069    1.275459
 H   -1.891484   -4.185610   -0.853973
 H   -0.163770   -0.842985   -2.443648
 H   -5.877140    2.574812    1.865182
 H   -6.027509    3.729045   -0.331349
 H   -7.557473    2.910487   -0.665814
 H   -7.451134    4.080405    0.654362
 H   -8.434796    1.147269    0.982265
 H   -7.504509    0.780584    2.437593
 H   -8.326257    2.336722    2.285799
 H   -3.656497    1.873672    1.975655
 H   -2.785785    2.088014    0.436219
 H    2.563857   -2.115450    0.198865
 H    1.759946   -2.649125    1.681219
 H    0.956701   -2.848282    0.124851
