70 
5q0y_ligand_ani.xyz
 C    2.179859   -2.175230   -3.032023
 C    1.242886   -1.546782   -2.200227
 C    1.628547   -1.104782   -0.927949
 C    0.350354   -1.641802    1.889978
 C   -0.155809   -1.359038    3.311511
 C   -0.607663   -3.993805    2.085193
 C   -0.512011   -2.728135    1.229454
 C    3.809082    2.333216    0.212967
 C    4.451825    4.749761   -0.138058
 C    2.073199    4.141252    0.454925
 C   -1.852150   -0.138777   -1.115400
 F    4.397121   -2.927777   -3.281893
 C    3.453287   -2.336907   -2.537636
 N   -0.097489   -1.280622   -2.407731
 C   -0.496824   -0.665621   -1.323204
 C   -2.131343    1.113013   -0.551483
 C   -3.441721    1.519104   -0.410180
 C   -4.441423    0.639249   -0.831739
 N   -4.202368   -0.543996   -1.391036
 C   -2.933901   -0.902359   -1.543393
 N   -5.798709    0.978673   -0.685200
 C   -6.868148    0.197673   -1.010338
 C   -7.985973    0.920888   -0.694222
 C   -7.487421    2.140528   -0.178550
 N   -6.166737    2.172610   -0.172610
 N    0.498385   -0.521683   -0.373076
 C    0.339472   -0.335961    1.070540
 C   -0.235455   -2.628035    4.160399
 C   -1.119288   -3.681282    3.491404
 C    1.424024    0.667481    1.523035
 O    2.178678    0.470368    2.463129
 N    1.457572    1.808200    0.774463
 C    2.533527    2.769559    0.946587
 C    4.919899    3.376073    0.353429
 C    3.178663    5.191773    0.590116
 C    2.911015   -1.284617   -0.412129
 C    3.814010   -1.902053   -1.250312
 F    5.076425   -2.111044   -0.855638
 H    1.930548   -2.526945   -4.027264
 H    1.386973   -2.003858    1.949466
 H    0.487584   -0.614083    3.789749
 H   -1.160962   -0.916301    3.233108
 H   -1.256526   -4.728482    1.592822
 H    0.388363   -4.455596    2.156291
 H   -0.112609   -2.984629    0.240748
 H   -1.523594   -2.325797    1.066980
 H    4.128168    1.354758    0.598228
 H    3.570142    2.191630   -0.853547
 H    5.246169    5.495701   -0.012506
 H    4.244065    4.690444   -1.216502
 H    1.786140    4.046641   -0.604221
 H    1.173146    4.439632    1.004232
 H   -1.330223    1.777709   -0.233755
 H   -3.704890    2.474670    0.025547
 H   -2.753944   -1.860924   -2.026083
 H   -6.724270   -0.787582   -1.431376
 H   -9.018460    0.623509   -0.812335
 H   -8.043903    2.994293    0.188056
 H   -0.630393    0.146541    1.212734
 H   -0.609745   -2.389401    5.163354
 H    0.777549   -3.035779    4.293960
 H   -2.147516   -3.297098    3.422644
 H   -1.164283   -4.593403    4.098958
 H    1.082799    1.728840   -0.163215
 H    2.747078    2.816634    2.021021
 H    5.812657    3.054860   -0.196038
 H    5.212955    3.449264    1.411063
 H    3.404896    5.341605    1.656197
 H    2.831423    6.158534    0.206788
 H    3.201628   -0.977526    0.587803
