72 
5q10_ligand_ani.xyz
 C   -1.896621    3.067318   -2.231117
 C   -2.302773    3.718063   -1.070541
 C   -1.875138    3.293814    0.182779
 C   -1.044074    2.185003    0.274036
 C    1.224765   -1.559981    0.447459
 C    4.248871    0.768891    0.662215
 C    6.402202    1.968606    0.076547
 C    3.637224    2.104992    1.107132
 C    0.273671   -3.322402   -1.099204
 C    0.573041   -4.367735   -2.177452
 C    2.930878   -4.583806   -1.311707
 C   -1.088663   -0.809869    0.880013
 C   -3.492137   -1.069396    0.908754
 C    0.282973    0.324511   -0.839301
 O    1.157584    0.207880   -1.697614
 C   -0.637338    1.508099   -0.877648
 C   -1.049640    1.972027   -2.124729
Cl   -3.357927    5.097849   -1.189696
 N    0.129676   -0.609804    0.163634
 C    1.540143   -2.551595   -0.694301
 C    1.664012   -5.338652   -1.719644
 C    2.633124   -3.530258   -0.243216
 C    2.429827   -0.805066    1.034543
 O    2.628276   -0.820013    2.242395
 N    3.234367   -0.142817    0.159363
 C    5.325208    0.989894   -0.400562
 C    5.781780    3.300240    0.509200
 C    4.713744    3.082138    1.584613
 C   -2.299880   -0.880681    0.202608
 C   -3.471952   -1.202757    2.298123
 C   -2.252942   -1.127638    2.963235
 C   -1.062214   -0.938279    2.271597
 N   -4.680578   -1.096194    0.151870
 C   -5.979737   -1.193662    0.593296
 O   -6.291637   -1.327528    1.761719
 C   -7.000513   -1.130674   -0.529278
 H   -2.233074    3.421407   -3.200880
 H   -2.198247    3.823007    1.073341
 H   -0.719410    1.826478    1.247303
 H    0.864686   -2.156590    1.286563
 H    4.694815    0.286454    1.540602
 H    7.144853    2.127790   -0.714029
 H    6.940926    1.526400    0.927448
 H    3.089733    2.541740    0.257022
 H    2.904742    1.912033    1.899777
 H   -0.502926   -2.628278   -1.445299
 H   -0.135790   -3.824641   -0.209199
 H    0.905746   -3.852848   -3.091202
 H   -0.340656   -4.913277   -2.442460
 H    3.696263   -5.281853   -0.951752
 H    3.354951   -4.084753   -2.195439
 H   -0.690596    1.464075   -3.015732
 H    1.901417   -2.004194   -1.571229
 H    1.887103   -6.068080   -2.507969
 H    1.293774   -5.911962   -0.857332
 H    3.547607   -2.980115    0.011706
 H    2.294989   -4.026882    0.679108
 H    2.854557    0.024316   -0.768619
 H    5.765374    0.025452   -0.679289
 H    4.842173    1.398603   -1.302817
 H    5.315889    3.778558   -0.364832
 H    6.556391    3.988858    0.868260
 H    4.253928    4.034842    1.872243
 H    5.188257    2.677276    2.490526
 H   -2.315307   -0.753214   -0.876134
 H   -4.398799   -1.352740    2.835241
 H   -2.232918   -1.237496    4.044947
 H   -0.113702   -0.877700    2.800909
 H   -4.546083   -0.973267   -0.841529
 H   -7.995790   -1.086004   -0.088453
 H   -6.930352   -2.022167   -1.161588
 H   -6.844841   -0.252530   -1.165134
