46 
5q12_ligand_ani.xyz
 N    0.389258    1.395921    0.293934
 C    4.090430   -1.655756   -0.096771
 C    2.744367   -1.232258    0.048973
 C    3.478413    1.095611    0.176457
 C    4.767408    0.668737    0.025406
 C   -1.070364    1.181215   -1.645079
 C   -3.373399    1.930620   -1.503721
 C   -2.320570    1.380838   -2.224419
 C   -0.784116   -1.507618    0.413625
 C   -1.525990   -1.085640    1.517559
 C   -1.485042   -2.276530   -0.515425
 C   -2.819246   -2.611183   -0.373976
 C   -1.811106    2.463225    1.911896
 C   -1.941249    2.106129    0.445551
 C   -3.172940    2.287447   -0.176215
 C    0.046961    0.591672   -2.477665
 C   -0.883829    1.557305   -0.305310
 C    1.087968    0.218618    0.282537
 C    0.623507   -1.103769    0.237587
 N    1.646097   -1.966947    0.067135
 C    5.079218   -0.716102   -0.108852
 C    3.122569    2.539583    0.335612
 N    2.469748    0.130947    0.196121
 F   -0.897411   -0.336703    2.453534
 C   -2.860521   -1.385676    1.703482
 C   -3.507930   -2.158712    0.746088
 F   -0.843918   -2.694946   -1.624184
 H    0.534969    1.967059    1.113390
 H    4.275951   -2.717584   -0.196182
 H    5.568552    1.402009    0.009181
 H   -4.343048    2.080982   -1.972693
 H   -2.460093    1.104754   -3.268449
 H   -3.293921   -3.211907   -1.143601
 H   -2.111073    3.502064    2.086963
 H   -2.467147    1.826688    2.516771
 H   -0.800431    2.339964    2.305879
 H   -3.990293    2.720189    0.398614
 H    0.142971   -0.488478   -2.314368
 H   -0.156073    0.742288   -3.541740
 H    1.009574    1.051912   -2.238262
 H    6.117814   -1.020324   -0.223024
 H    2.678030    2.744727    1.315482
 H    4.031617    3.141360    0.256326
 H    2.417575    2.871908   -0.431849
 H   -3.369349   -1.010078    2.586045
 H   -4.556613   -2.408682    0.873000
