62 
5q13_ligand_ani.xyz
 C    0.688090   -4.455137   -0.862293
 C   -0.034249   -3.265601   -0.722352
 C    0.646285   -2.048086   -0.597002
 C   -1.537455   -1.762838   -0.517409
 C   -2.829076   -1.057688   -0.534068
 C    0.576458    0.029879    1.658011
 C    0.644376   -1.110150    3.889734
 C    0.015482   -1.119228    2.497299
 C    0.789923    4.875626   -0.480938
 C    3.069029    5.924223   -0.769712
 C    2.847762    3.419926   -0.520608
 C   -4.216731    0.822581   -1.166946
 C    0.504672    0.272166    4.525227
 C    1.042484    1.328650    3.571546
 O    0.371193    1.271166    2.326213
 C   -0.118723    0.180532    0.279586
 C    0.661154    1.166603   -0.621190
 O    1.295098    0.825628   -1.606574
 N    0.577770    2.465079   -0.213791
 C    1.354635    3.508075   -0.866214
 C    1.580701    6.022642   -1.116309
 C    3.635633    4.559195   -1.170095
 N   -0.336275   -1.080023   -0.415250
 C    2.032462   -1.955794   -0.631455
 C    2.739655   -3.137604   -0.773055
 C    2.064758   -4.365612   -0.881202
 N   -1.395734   -3.056227   -0.660260
 C   -2.984676    0.181355   -1.160235
 C   -5.299408    0.211454   -0.543644
 C   -5.172270   -1.035254    0.058932
 C   -3.938407   -1.671229    0.045718
Cl   -6.843355    1.014079   -0.531428
 F    2.779666   -5.485448   -1.013369
Cl    4.467673   -3.111927   -0.827939
 H    0.204707   -5.421538   -0.956027
 H    1.660096   -0.112110    1.510620
 H    0.184175   -1.878419    4.521277
 H    1.710452   -1.367175    3.805391
 H    0.202401   -2.073324    1.990531
 H   -1.071724   -0.992744    2.576697
 H    0.836701    4.966896    0.616343
 H   -0.267795    4.925794   -0.764511
 H    3.193645    6.057545    0.314806
 H    3.631734    6.732628   -1.252360
 H    3.229215    2.445874   -0.844709
 H    2.960189    3.467693    0.572866
 H   -4.336879    1.791446   -1.639607
 H    1.039313    0.325331    5.481356
 H   -0.552875    0.484171    4.728463
 H    2.125584    1.181189    3.416213
 H    0.897584    2.340462    3.966186
 H   -1.096542    0.605936    0.499107
 H    0.291654    2.615856    0.743163
 H    1.245972    3.357000   -1.947274
 H    1.172551    6.987285   -0.792227
 H    1.459208    5.983085   -2.208805
 H    4.695124    4.485440   -0.898001
 H    3.585344    4.451612   -2.263733
 H    2.536699   -0.998473   -0.582778
 H   -2.135499    0.641104   -1.659027
 H   -6.033707   -1.502457    0.525692
 H   -3.823777   -2.655931    0.489936
