62 
5q13_ligand_dft.xyz
 C    0.125091   -4.200070   -0.701589
 C   -0.500124   -2.955039   -0.595127
 C    0.257039   -1.812870   -0.284629
 C   -1.872823   -1.323057   -0.579889
 C   -3.092822   -0.514041   -0.727897
 C   -0.033933    0.412461    1.794344
 C   -0.835648   -0.301569    4.067280
 C   -1.112087   -0.353213    2.562738
 C    3.378057    3.625338    0.059828
 C    5.517918    3.318556   -1.258591
 C    3.723096    1.542037   -1.326765
 C   -4.239664    1.426836   -1.602092
 C   -0.636716    1.146606    4.518061
 C    0.430685    1.808327    3.657842
 O    0.095416    1.743410    2.277235
 C   -0.377560    0.539334    0.298616
 C    0.641893    1.241206   -0.627794
 O    0.499591    1.158191   -1.838668
 N    1.661853    1.887101   -0.025717
 C    2.701080    2.555783   -0.797318
 C    4.496821    4.324674   -0.718198
 C    4.837173    2.241628   -2.108383
 N   -0.650030   -0.769557   -0.261775
 C    1.634498   -1.854754   -0.082750
 C    2.239713   -3.096078   -0.188164
 C    1.487273   -4.246732   -0.490679
 N   -1.826071   -2.618749   -0.772475
 C   -3.075450    0.682756   -1.451715
 C   -5.420320    0.961814   -1.032856
 C   -5.460557   -0.237511   -0.328302
 C   -4.292451   -0.974090   -0.181943
Cl   -6.884906    1.897319   -1.212330
 F    2.121810   -5.420716   -0.580270
Cl    3.957763   -3.243777    0.043819
 H   -0.425363   -5.101016   -0.944741
 H    0.930682   -0.105945    1.922277
 H   -1.656481   -0.771954    4.617571
 H    0.071328   -0.880353    4.289992
 H   -1.144591   -1.390817    2.215557
 H   -2.088094    0.100241    2.343879
 H    3.803642    3.147703    0.955471
 H    2.634104    4.354671    0.402533
 H    6.033457    2.839715   -0.414009
 H    6.284696    3.838762   -1.843545
 H    3.207002    0.807982   -1.953437
 H    4.153750    1.003038   -0.470481
 H   -4.233995    2.353488   -2.165147
 H   -0.341784    1.196525    5.572039
 H   -1.574875    1.703914    4.409075
 H    1.405995    1.320062    3.821143
 H    0.537050    2.871798    3.883957
 H   -1.299315    1.124321    0.242728
 H    1.565380    2.079421    0.964315
 H    2.217181    3.036000   -1.657635
 H    4.988990    5.063456   -0.076180
 H    4.055691    4.878679   -1.558121
 H    5.571028    1.504770   -2.451981
 H    4.410215    2.704781   -3.008729
 H    2.225796   -0.969177    0.123043
 H   -2.151102    1.017676   -1.916535
 H   -6.393876   -0.587971    0.098006
 H   -4.302775   -1.917908    0.353128
