61 
5q14_ligand_ani.xyz
 N    1.141524    0.624970   -0.440499
 N    2.507861    1.826689   -1.769083
 C    0.453884    1.780637   -0.778381
 C    1.323320    2.511013   -1.602920
 C   -0.815095    2.244848   -0.433422
 C    0.836495   -0.238713    0.710304
 C    0.933801    3.755100   -2.116476
 C   -6.723054   -2.165115   -0.743115
 C   -5.373146   -1.698983   -0.344653
 C   -3.042905   -2.220364   -0.095323
 C   -2.775058   -0.935314    0.394647
 C   -5.133610   -0.414491    0.145905
 C   -3.851089   -0.046343    0.510296
 C    0.702760    0.532829    2.040930
 C    2.994030   -1.722004   -1.213974
 C   -0.363909   -1.129559    0.405263
 O   -1.570257   -0.484446    0.822087
 C   -4.317632   -2.598841   -0.464068
 F   -2.050629   -3.132686   -0.208990
 O   -7.681391   -1.229903   -0.582770
 O   -6.968708   -3.270000   -1.170156
 C    1.906569    1.459021    2.266053
 C    1.822978    2.190626    3.608232
 C    1.686497    1.205666    4.770347
 C    0.481942    0.286886    4.560372
 C    0.564671   -0.443209    3.218260
 C   -1.180111    3.466589   -0.956989
 C   -0.318892    4.210629   -1.781667
 C    2.354037    0.711474   -1.102390
 C    3.349906   -0.377904   -1.081625
 C    4.699820   -0.045293   -0.977391
 C    5.673417   -1.034161   -0.938107
 C    5.292862   -2.367276   -1.041206
 C    3.957524   -2.721994   -1.193897
Cl    6.509557   -3.610835   -0.994091
 F   -0.756053    5.390078   -2.239737
 F   -2.381213    3.991849   -0.684855
 H   -1.483900    1.694614    0.211935
 H    1.702789   -0.895577    0.809109
 H    1.581192    4.345851   -2.755336
 H   -5.955337    0.287482    0.239843
 H   -3.653650    0.944622    0.908860
 H   -0.203745    1.149656    2.004874
 H    1.952485   -1.995810   -1.355244
 H   -0.258221   -2.079529    0.936945
 H   -0.407907   -1.310096   -0.672240
 H   -4.491174   -3.599179   -0.845940
 H   -8.506084   -1.653501   -0.871259
 H    1.985360    2.185222    1.447026
 H    2.827086    0.854925    2.242341
 H    2.705571    2.827628    3.744887
 H    0.952513    2.863069    3.596780
 H    2.598566    0.594153    4.830471
 H    1.603668    1.740766    5.724357
 H   -0.439585    0.887457    4.582260
 H    0.401518   -0.436545    5.380666
 H    1.437702   -1.114287    3.222857
 H   -0.323898   -1.072377    3.085551
 H    4.980496    1.002657   -0.922491
 H    6.722871   -0.775950   -0.835971
 H    3.677361   -3.765587   -1.284737
