61 
5q14_ligand_xtb.xyz
 N    1.169146    0.680358   -0.319497
 N    2.507571    1.873219   -1.664193
 C    0.510521    1.857412   -0.585103
 C    1.371068    2.591915   -1.440616
 C   -0.723226    2.361864   -0.202416
 C    0.811062   -0.333573    0.648603
 C    1.006418    3.845382   -1.921573
 C   -6.834741   -2.028144   -0.805734
 C   -5.463060   -1.611757   -0.445215
 C   -3.109148   -2.077848   -0.497130
 C   -2.820406   -0.898925    0.196819
 C   -5.200349   -0.432533    0.249707
 C   -3.904849   -0.090831    0.560739
 C    0.675294    0.263961    2.063520
 C    3.068527   -1.634025   -1.224842
 C   -0.426832   -1.122205    0.183048
 O   -1.604645   -0.440542    0.570477
 C   -4.402874   -2.431510   -0.814998
 F   -2.121884   -2.926838   -0.882276
 O   -7.775475   -1.167184   -0.389908
 O   -7.106862   -3.034983   -1.409958
 C    1.962939    1.000272    2.444405
 C    1.856981    1.586729    3.848836
 C    1.571978    0.488326    4.866798
 C    0.289228   -0.246838    4.496184
 C    0.387176   -0.833476    3.090143
 C   -1.066333    3.604806   -0.688927
 C   -0.218000    4.335737   -1.530764
 C    2.363090    0.755201   -1.005337
 C    3.380424   -0.290408   -1.022569
 C    4.717397    0.083104   -0.892674
 C    5.720588   -0.864671   -0.926126
 C    5.390079   -2.200766   -1.100719
 C    4.068426   -2.587906   -1.260977
Cl    6.637303   -3.393492   -1.137163
 F   -0.619039    5.544850   -1.967784
 F   -2.259550    4.125886   -0.340377
 H   -1.411057    1.823756    0.425737
 H    1.647774   -1.040823    0.670484
 H    1.649910    4.409890   -2.574108
 H   -6.015983    0.209815    0.538792
 H   -3.692271    0.819925    1.097648
 H   -0.152262    0.975925    2.075069
 H    2.046150   -1.939233   -1.391091
 H   -0.403259   -2.122286    0.629609
 H   -0.389608   -1.224177   -0.908753
 H   -4.591634   -3.348415   -1.351224
 H   -8.651642   -1.487103   -0.655785
 H    2.163376    1.804096    1.732947
 H    2.803247    0.301334    2.404227
 H    2.786228    2.100229    4.101573
 H    1.050867    2.323335    3.873443
 H    2.405119   -0.217921    4.882230
 H    1.479144    0.919178    5.865166
 H   -0.551801    0.448661    4.538909
 H    0.096589   -1.047930    5.212212
 H    1.188999   -1.575891    3.061253
 H   -0.551322   -1.334154    2.850327
 H    4.954583    1.127525   -0.768305
 H    6.753781   -0.574079   -0.820949
 H    3.825756   -3.626494   -1.421268
