58 
5q1d_ligand_dft.xyz
 N    0.751915   -0.506515   -0.555503
 N    0.508696   -0.246592   -2.780403
 C    1.949391    0.013596   -1.020728
 C    1.781063    0.139326   -2.409883
 C    0.232835    0.754127    1.451440
 C    0.354400   -0.658961    0.841688
 C    3.122550    0.408756   -0.371260
 C    3.986396    0.987241   -2.577811
 C    1.262637   -1.581816    1.659751
 C   -1.910954   -2.209298   -1.018752
 C   -1.340609    2.701865    1.339813
 C   -4.200162   -1.607358   -1.407193
 C   -3.263109   -2.518214   -0.930127
 C    0.633069   -1.840053    3.037231
 C   -0.610522    3.595717    2.126527
 F    5.022939    1.463919   -3.278233
 C    2.820806    0.625183   -3.211555
 C   -0.067810   -0.612581   -1.666302
 C   -1.491034   -0.998500   -1.576055
 C   -2.449597   -0.107021   -2.068022
 C   -3.805003   -0.404271   -1.983318
Cl   -5.899251   -1.983348   -1.286400
 C    1.535133   -2.906088    0.936381
 C    2.415186   -3.828795    1.784351
 C    1.797795   -4.080571    3.162413
 C    1.511314   -2.762829    3.885663
 O    1.105339    1.236241    2.151942
 N   -0.920567    1.380635    1.079191
 C   -2.554215    3.102503    0.772008
 C   -3.037125    4.385850    0.987364
 C   -2.315793    5.283223    1.770392
 C   -1.109205    4.878888    2.331741
 C    4.128671    0.888780   -1.181008
 F    5.283018    1.293311   -0.639888
 H   -0.641388   -1.110609    0.823563
 H    3.247771    0.403822    0.703619
 H    2.218132   -1.073797    1.829680
 H   -1.174259   -2.925111   -0.666877
 H   -3.588887   -3.459129   -0.500960
 H    0.474466   -0.891115    3.558920
 H   -0.354173   -2.307610    2.897725
 H    0.327937    3.284630    2.563634
 H    2.715278    0.726443   -4.284963
 H   -2.121017    0.820849   -2.525404
 H   -4.548143    0.288181   -2.363051
 H    2.006957   -2.722217   -0.034724
 H    0.576796   -3.410689    0.738254
 H    2.575852   -4.776331    1.258287
 H    3.403439   -3.364612    1.907934
 H    2.460380   -4.710393    3.766572
 H    0.857200   -4.636506    3.039664
 H    1.027669   -2.952171    4.850305
 H    2.460021   -2.253150    4.102294
 H   -1.539004    0.852647    0.477107
 H   -3.121010    2.404151    0.159194
 H   -3.980619    4.683275    0.539990
 H   -2.692334    6.286849    1.940246
 H   -0.537069    5.569617    2.943856
