74 
5q1f_ligand_ani.xyz
 N   -1.707518   -1.200797   -2.463224
 C   -2.573895    0.773041   -1.326402
 C   -0.770924   -2.175289   -2.186127
 C    0.569113   -0.319503    1.484563
 C   -0.239693   -1.978322   -0.903315
 C   -2.136073    2.034046   -0.882307
 C   -0.893729   -0.496770    1.011099
 C   -3.895445    0.699091   -1.770735
 C   -4.189791    2.968945   -1.155384
 C   -1.659500   -1.526342    1.865006
 C    0.571803   -4.112394   -2.397175
 C    4.674376    2.321283    0.786033
 C   -4.734291    1.790537   -1.674293
 C    2.702105    0.748665    0.954669
 C   -4.415634    5.219950   -0.526762
 O   -5.003514    4.032854   -1.044689
 O   -0.835835    2.169595   -0.561026
 C   -0.444723    3.464811   -0.092419
 N   -2.921787    3.094427   -0.782948
 C   -1.714653   -0.416827   -1.415183
 C   -0.353684   -3.263822   -2.963962
 F    0.997254   -5.169470   -3.112613
 C    1.092834   -3.939530   -1.107865
 C    0.679828   -2.862494   -0.338144
 N   -0.850504   -0.826581   -0.415491
 C   -1.893820   -0.963723    3.273913
 C   -2.685374   -1.932987    4.152812
 C   -4.020261   -2.303383    3.504693
 C   -3.798528   -2.876545    2.104458
 C   -3.001490   -1.909148    1.225035
 O    1.073236   -0.998332    2.370753
 N    1.260614    0.634497    0.814716
 C    3.435692   -0.255489    0.056507
 C    4.951767   -0.131226    0.205063
 C    5.409247    1.306039   -0.091198
 C    3.159138    2.173908    0.648126
 C    6.908930    1.474158    0.049240
 O    7.600828    0.528198   -0.623026
 O    7.465425    2.349375    0.669326
 H   -1.391389    0.470046    1.084561
 H   -4.254155   -0.242240   -2.185068
 H   -1.039346   -2.431412    1.945271
 H    4.971899    2.160318    1.830138
 H    4.996101    3.334752    0.528161
 H   -5.773978    1.767100   -1.983233
 H    2.940203    0.511249    1.999562
 H   -3.600783    5.562222   -1.172454
 H   -5.217956    5.958515   -0.496941
 H   -4.012189    5.047260    0.475885
 H   -0.614618    4.213888   -0.869964
 H   -1.028364    3.730291    0.792260
 H    0.617733    3.409699    0.155809
 H   -0.736322   -3.442524   -3.963076
 H    1.811867   -4.661792   -0.735696
 H    1.056529   -2.723497    0.671204
 H   -0.933186   -0.720479    3.739261
 H   -2.454808   -0.020938    3.176171
 H   -2.845711   -1.498467    5.146961
 H   -2.090015   -2.845765    4.303710
 H   -4.570827   -3.015350    4.131711
 H   -4.645410   -1.401787    3.428219
 H   -3.247648   -3.825624    2.183136
 H   -4.757861   -3.112490    1.627919
 H   -2.839752   -2.356794    0.236805
 H   -3.593483   -0.994416    1.070649
 H    0.815309    1.041165   -0.000290
 H    3.100580   -1.272424    0.301997
 H    3.150576   -0.075755   -0.991644
 H    5.466652   -0.829607   -0.460647
 H    5.243216   -0.394579    1.231267
 H    5.178597    1.515644   -1.147715
 H    2.865624    2.428838   -0.383785
 H    2.651510    2.877982    1.319707
 H    8.539424    0.733779   -0.478082
