74 
5q1f_ligand_dft.xyz
 N   -1.424516   -1.180819   -2.524948
 C   -2.499586    0.672570   -1.355882
 C   -0.544148   -2.184771   -2.176855
 C    0.543033   -0.320018    1.541519
 C   -0.159258   -2.054080   -0.831264
 C   -2.148823    1.963602   -0.946948
 C   -0.902231   -0.517234    1.026043
 C   -3.820952    0.500939   -1.782143
 C   -4.251075    2.777239   -1.277324
 C   -1.730674   -1.476614    1.892810
 C    0.829952   -4.099099   -2.337658
 C    4.601445    2.389236    0.819788
 C   -4.722225    1.547026   -1.746208
 C    2.682053    0.755002    0.994003
 C   -4.635367    5.045297   -0.757725
 O   -5.122488    3.792842   -1.219251
 O   -0.866702    2.188402   -0.583545
 C   -0.539433    3.492922   -0.115573
 N   -2.995541    2.982889   -0.895683
 C   -1.567031   -0.463620   -1.436440
 C   -0.038250   -3.227551   -2.959967
 F    1.344719   -5.121347   -3.046417
 C    1.210738   -3.982755   -0.993810
 C    0.716346   -2.949497   -0.213438
 N   -0.823313   -0.927215   -0.371336
 C   -2.019727   -0.830436    3.256577
 C   -2.884198   -1.733277    4.139294
 C   -4.189670   -2.112191    3.437838
 C   -3.909274   -2.763360    2.081857
 C   -3.041299   -1.867271    1.194737
 O    1.002396   -0.949443    2.483934
 N    1.247057    0.595159    0.835110
 C    3.456965   -0.241141    0.122367
 C    4.967739   -0.054473    0.269159
 C    5.374250    1.397989   -0.052645
 C    3.091273    2.193598    0.676534
 C    6.866819    1.578137    0.110273
 O    7.559289    0.866152   -0.802530
 O    7.413842    2.254242    0.948653
 H   -1.391110    0.460506    1.031897
 H   -4.122207   -0.477660   -2.141422
 H   -1.139201   -2.384900    2.065583
 H    4.896729    2.243808    1.865650
 H    4.878347    3.416065    0.561200
 H   -5.752816    1.441432   -2.060132
 H    2.898729    0.542778    2.046318
 H   -3.846879    5.424498   -1.414386
 H   -5.495650    5.714532   -0.775791
 H   -4.239910    4.962607    0.258759
 H   -0.702275    4.239029   -0.896991
 H   -1.138303    3.754817    0.760497
 H    0.516184    3.444470    0.151799
 H   -0.312753   -3.349947   -4.000827
 H    1.894786   -4.715820   -0.581296
 H    1.001788   -2.848658    0.828106
 H   -1.078350   -0.598421    3.761094
 H   -2.549873    0.120802    3.090844
 H   -3.091426   -1.232512    5.091903
 H   -2.321895   -2.646369    4.378777
 H   -4.782793   -2.784722    4.068192
 H   -4.793120   -1.205878    3.285075
 H   -3.392170   -3.719923    2.240543
 H   -4.848526   -2.995143    1.566878
 H   -2.830007   -2.379451    0.249141
 H   -3.599602   -0.952796    0.942686
 H    0.807471    0.971312    0.003162
 H    3.170329   -1.261592    0.395736
 H    3.164500   -0.097319   -0.927428
 H    5.502611   -0.747342   -0.386511
 H    5.266590   -0.286288    1.300604
 H    5.144428    1.580347   -1.111950
 H    2.787111    2.433498   -0.354375
 H    2.557644    2.881622    1.342142
 H    8.498292    1.020065   -0.611330
