53 
5q1i_ligand_ani.xyz
 C   -0.381182   -2.479071   -1.706774
 C    0.935934   -2.862419   -1.917803
 C    1.889017   -2.637338   -0.929502
 C   -2.156235   -1.346560   -0.392730
 C   -3.997617   -0.181168   -0.027886
 C   -6.293295    0.602376   -0.662583
 C   -1.895831    1.250677    0.037504
 C    1.685102    1.816861   -0.407423
 C   -0.018567    3.539250   -1.242463
 C    2.387042    1.728780   -1.631415
 C    2.279158    1.326642    0.732164
 C    4.260638    0.641692   -0.525563
 C    6.107253   -0.469033    0.593170
 C   -5.111735    0.759965    0.297800
 C   -5.554745    0.588077    1.756615
 O   -4.295438   -1.457900   -0.273771
 N   -3.151309   -2.183768   -0.516010
 C   -0.763930   -1.840805   -0.526822
 C    1.520184   -2.052450    0.276429
 C    0.197361   -1.675481    0.477274
Cl   -0.248193   -0.973820    2.004377
 C   -2.635952   -0.020879   -0.106608
 O   -2.352030    2.223435    0.635184
 N   -0.671800    1.268766   -0.547834
 C    0.266065    2.355727   -0.322178
 C    3.633388    1.161406   -1.690579
 C    5.546184    0.031380   -0.553691
 C    5.417765   -0.381030    1.822862
 C    4.178407    0.205092    1.880291
 C    3.568637    0.729178    0.707752
 H   -1.139738   -2.655288   -2.464277
 H    1.219773   -3.334983   -2.854222
 H    2.927607   -2.913052   -1.096944
 H   -5.969278    0.734803   -1.699199
 H   -6.745008   -0.390324   -0.567187
 H   -7.058727    1.353897   -0.439659
 H    0.707749    4.339608   -1.068280
 H    0.023218    3.245056   -2.296460
 H   -1.022801    3.916418   -1.032308
 H    1.939942    2.116322   -2.544945
 H    1.757028    1.374898    1.684407
 H    7.088937   -0.935142    0.563835
 H   -4.686644    1.762400    0.194532
 H   -4.713058    0.763091    2.434769
 H   -5.938628   -0.423479    1.931977
 H   -6.346847    1.304997    1.998418
 H    2.263953   -1.861618    1.043712
 H   -0.363527    0.446429   -1.046971
 H    0.094589    2.690988    0.708662
 H    4.161891    1.098710   -2.638281
 H    6.072558   -0.030011   -1.503176
 H    5.874377   -0.780465    2.724305
 H    3.635145    0.267215    2.821456
