53 
5q1i_ligand_xtb.xyz
 C   -0.349702   -2.753280   -1.175568
 C    0.956629   -3.195106   -1.271040
 C    1.910895   -2.730759   -0.381164
 C   -2.109490   -1.375218   -0.118943
 C   -3.960996   -0.199371    0.071524
 C   -6.298483    0.394213   -0.531261
 C   -1.843790    1.231796   -0.089278
 C    1.577667    1.545210   -0.824233
 C    0.130724    3.041583   -2.263899
 C    2.038048    0.664381   -1.824165
 C    2.332013    1.727334    0.303967
 C    4.016100    0.174939   -0.532176
 C    5.968175   -0.330268    0.793176
 C   -5.049694    0.802022    0.246917
 C   -5.346553    0.938224    1.744774
 O   -4.247559   -1.505469    0.040220
 N   -3.106429   -2.222712   -0.074981
 C   -0.720154   -1.829710   -0.201888
 C    1.558724   -1.828524    0.606321
 C    0.252740   -1.376434    0.691377
Cl   -0.163049   -0.263202    1.948429
 C   -2.601095   -0.036721   -0.043561
 O   -2.161200    2.219471    0.543269
 N   -0.789781    1.188173   -0.936472
 C    0.234574    2.217157   -0.979543
 C    3.224037    0.004151   -1.686039
 C    5.236394   -0.506470   -0.347768
 C    5.513526    0.536426    1.799716
 C    4.336783    1.215069    1.647986
 C    3.557765    1.054141    0.483111
 H   -1.107335   -3.117446   -1.852311
 H    1.227611   -3.907095   -2.035451
 H    2.931695   -3.074223   -0.445374
 H   -6.078707    0.305318   -1.592892
 H   -6.668510   -0.563355   -0.173257
 H   -7.076718    1.141540   -0.400393
 H    0.907042    3.802067   -2.275936
 H    0.244272    2.412891   -3.143459
 H   -0.840371    3.528033   -2.306784
 H    1.442749    0.509704   -2.712783
 H    1.987235    2.390534    1.084669
 H    6.901725   -0.856361    0.929717
 H   -4.670592    1.762205   -0.115870
 H   -4.453991    1.268940    2.269627
 H   -5.669963   -0.015572    2.156100
 H   -6.132942    1.672258    1.899080
 H    2.291490   -1.471677    1.312164
 H   -0.586080    0.329502   -1.424502
 H    0.039438    2.871277   -0.122578
 H    3.569627   -0.666165   -2.460114
 H    5.581764   -1.172023   -1.126364
 H    6.104061    0.662336    2.695379
 H    3.982853    1.882802    2.420249
