28 
5qa4_ligand_ani.xyz
 C   -3.329994   -0.936063    0.443088
 O   -4.565759   -0.754229   -0.073775
 C   -2.260407    0.014076   -0.014022
 C    2.198564    1.783287    1.385886
 C   -0.174455    1.696854   -0.764101
 C   -1.489941    2.140495   -0.843762
 C   -2.536267    1.306417   -0.465632
 C   -0.941143   -0.421966    0.066653
 C    0.117677    0.411127   -0.292944
 C    1.514810   -0.098148   -0.203453
 C    1.844727   -1.271200   -0.888343
 C    3.139660   -1.770177   -0.884345
 C    4.121905   -1.107894   -0.158354
 C    3.792874    0.038435    0.557354
 C    2.499562    0.558706    0.556850
 O   -3.130319   -1.824153    1.229647
 H   -4.539469   -0.110308   -0.794394
 H    2.156540    2.687269    0.768437
 H    1.231125    1.693757    1.889411
 H    2.972021    1.943025    2.142070
 H    0.637549    2.349495   -1.076297
 H   -1.700785    3.141671   -1.208690
 H   -3.557254    1.685159   -0.495108
 H   -0.753995   -1.427657    0.436846
 H    1.061004   -1.783123   -1.443447
 H    3.378135   -2.674294   -1.437431
 H    5.140567   -1.487849   -0.140269
 H    4.557750    0.546210    1.142639
