26 
5qa7_ligand_xtb.xyz
 C   -3.316362   -1.173504    0.234144
 O   -2.983488   -2.323800    0.158342
 C   -2.386354   -0.038008   -0.033222
 C   -0.551015    1.987137   -0.503239
 C   -1.903160    2.224958   -0.670995
 C   -2.826487    1.222330   -0.432704
 C   -1.023858   -0.278209    0.108109
 C   -0.092384    0.729259   -0.114592
 C    1.345728    0.471270    0.055566
 C    1.896452   -0.723427   -0.389352
 C    3.254791   -0.973311   -0.233180
 C    4.066321   -0.025532    0.379941
 C    3.516314    1.162176    0.828454
 C    2.168195    1.416776    0.666275
 O    3.743259   -2.153863   -0.695235
 O   -4.574857   -0.846253    0.586634
 H    0.159744    2.775498   -0.701132
 H   -2.241831    3.198518   -0.993416
 H   -3.876705    1.425072   -0.599071
 H   -0.707174   -1.262660    0.417146
 H    1.288730   -1.467059   -0.879645
 H    5.123361   -0.220071    0.504964
 H    4.149003    1.893367    1.309381
 H    1.745436    2.338767    1.035516
 H    4.690309   -2.211027   -0.520111
 H   -4.699272    0.109431    0.657197
