29 
5qa9_ligand_xtb.xyz
 C   -3.918367   -0.622890    0.519567
 O   -3.810975   -1.585981    1.227916
 C   -2.753971    0.199144    0.081347
 C    3.330580   -0.263413    0.117719
 C    4.554626    0.487674    0.576014
 C    2.084161    0.337386    0.118573
 C   -1.501457   -0.405633    0.097750
 C   -2.871181    1.529882   -0.315077
 C   -1.741073    2.230954   -0.697797
 C   -0.501407    1.617883   -0.698227
 C   -0.364133    0.289025   -0.297701
 C    0.953733   -0.362864   -0.295388
 C    1.091801   -1.684080   -0.710450
 C    2.337580   -2.285289   -0.716274
 C    3.454678   -1.581912   -0.305502
 O    4.244215    1.836189    0.843603
 O   -5.127179   -0.241947    0.062387
 H    5.327491    0.418626   -0.206322
 H    4.950658   -0.003194    1.479898
 H    2.000165    1.354644    0.466075
 H   -1.433683   -1.427006    0.440681
 H   -3.824663    2.042125   -0.294868
 H   -1.829693    3.264304   -0.999318
 H    0.369317    2.169016   -1.019908
 H    0.226562   -2.234379   -1.048511
 H    2.438125   -3.308775   -1.045832
 H    4.426616   -2.054317   -0.310866
 H    5.038216    2.281511    1.154621
 H   -5.071045    0.516165   -0.534221
