29 
5qa9_ligand_ani.xyz
 C   -3.941649   -0.622700    0.529137
 O   -3.845642   -1.544434    1.296176
 C   -2.768986    0.198678    0.076091
 C    3.353289   -0.266271    0.136996
 C    4.574749    0.479420    0.619276
 C    2.097614    0.331034    0.145750
 C   -1.514318   -0.402156    0.109760
 C   -2.891467    1.529004   -0.329663
 C   -1.757579    2.238591   -0.711923
 C   -0.509347    1.625506   -0.692996
 C   -0.370367    0.292762   -0.287695
 C    0.964369   -0.364158   -0.287469
 C    1.111943   -1.681411   -0.733335
 C    2.365178   -2.282395   -0.757082
 C    3.482220   -1.577638   -0.322133
 O    4.257836    1.841617    0.809281
 O   -5.148764   -0.279820    0.027133
 H    5.382480    0.356408   -0.119553
 H    4.930319    0.021180    1.557030
 H    2.002507    1.349820    0.510648
 H   -1.445417   -1.422808    0.478499
 H   -3.856768    2.033037   -0.314448
 H   -1.847234    3.273943   -1.030037
 H    0.373152    2.177412   -1.008412
 H    0.237517   -2.225817   -1.082247
 H    2.468226   -3.304715   -1.111536
 H    4.464420   -2.046390   -0.337361
 H    5.055178    2.291176    1.111412
 H   -5.045704    0.368242   -0.682990
