29 
5qaa_ligand_xtb.xyz
 C    3.407662    0.712434   -0.518902
 O    4.541431    0.376702   -0.726455
 C    2.340621   -0.232675   -0.081867
 C   -1.669254    2.839218    1.021492
 C    0.424146   -2.031287    0.797092
 C    1.766184   -2.289945    1.014972
 C    2.726351   -1.398128    0.576273
 C    0.992419    0.013308   -0.317119
 C    0.022141   -0.879051    0.124298
 C   -1.406665   -0.620098   -0.119766
 C   -2.223754   -1.636436   -0.596998
 C   -3.570716   -1.425774   -0.831487
 C   -4.117035   -0.182254   -0.577656
 C   -3.325201    0.845769   -0.093551
 C   -1.970178    0.643455    0.135601
 O   -1.127281    1.603472    0.622259
 O    3.035716    2.000112   -0.653869
 H   -2.087093    3.390318    0.172494
 H   -2.439211    2.712879    1.788622
 H   -0.836823    3.403574    1.439952
 H   -0.324289   -2.721097    1.158610
 H    2.062646   -3.189398    1.533590
 H    3.777902   -1.577757    0.738066
 H    0.673352    0.876964   -0.884080
 H   -1.784520   -2.601138   -0.803278
 H   -4.187108   -2.226471   -1.209996
 H   -5.166658   -0.001548   -0.754569
 H   -3.776810    1.805830    0.099713
 H    2.109363    2.134344   -0.408901
