29 
5qaa_ligand_ani.xyz
 C    3.756354   -0.593557   -0.453529
 O    4.852003   -0.385326   -0.004280
 C    2.519799    0.112225    0.028703
 C   -3.301952    2.192043   -1.154117
 C    0.291956    1.510338    0.943176
 C    1.563145    2.055478    1.083543
 C    2.678273    1.356358    0.636397
 C    1.246675   -0.449014   -0.066320
 C    0.118678    0.239037    0.383850
 C   -1.219472   -0.419783    0.306077
 C   -1.359383   -1.738715    0.737363
 C   -2.581584   -2.398864    0.702790
 C   -3.694394   -1.736177    0.205358
 C   -3.587829   -0.424007   -0.245205
 C   -2.359489    0.236010   -0.193294
 O   -2.185993    1.512682   -0.627113
 O    3.584322   -1.494707   -1.446233
 H   -3.699901    1.684738   -2.042735
 H   -4.099847    2.292781   -0.406868
 H   -2.943056    3.183078   -1.434867
 H   -0.579572    2.063329    1.277119
 H    1.684121    3.033600    1.540817
 H    3.682004    1.757351    0.743670
 H    1.115147   -1.452582   -0.471348
 H   -0.481637   -2.245869    1.131388
 H   -2.658619   -3.424200    1.052517
 H   -4.658494   -2.237839    0.162956
 H   -4.468199    0.076916   -0.632902
 H    2.680739   -1.440725   -1.787481
