29 
5qab_ligand_ani.xyz
 C   -3.959232   -0.828190    0.484464
 O   -5.198392   -0.537954    0.029704
 C   -2.864645    0.127535    0.106297
 C    5.547662    0.359302    0.730541
 C    3.496975   -1.146755   -0.429655
 C    2.426197   -1.837648   -0.996264
 C    1.138278   -1.330654   -0.936652
 C   -1.565618   -0.369280    0.068334
 C   -0.485417    0.453849   -0.255509
 C   -0.735660    1.805102   -0.521208
 C   -2.030458    2.312058   -0.472469
 C   -3.098851    1.477972   -0.159364
 C    0.894553   -0.098771   -0.315550
 C    1.961786    0.594595    0.245944
 C    3.257422    0.074565    0.198989
 O   -3.776054   -1.810013    1.155050
 O    4.220302    0.832551    0.788431
 H   -5.160288    0.184010   -0.612299
 H    5.653458   -0.607676    1.239802
 H    5.893776    0.258131   -0.306564
 H    6.155984    1.105750    1.243212
 H    4.495626   -1.565340   -0.484386
 H    2.607853   -2.792093   -1.484647
 H    0.310606   -1.874344   -1.385026
 H   -1.409408   -1.415106    0.321697
 H    0.090649    2.461222   -0.783743
 H   -2.207817    3.363421   -0.683014
 H   -4.101224    1.897887   -0.087134
 H    1.805978    1.545392    0.749235
