29 
5qac_ligand_dft.xyz
 C   -3.950170   -1.181738    0.116036
 O   -3.569331   -2.270164    0.821493
 C   -2.939914   -0.080518   -0.012893
 C    1.668291    1.336888    0.692363
 C   -1.142312    2.024151   -0.269884
 C   -2.510651    2.261884   -0.354456
 C   -3.412663    1.212477   -0.239429
 C   -1.566430   -0.313446    0.065002
 C   -0.647269    0.731298   -0.068358
 C    0.811529    0.471320   -0.002909
 C    1.375672   -0.639692   -0.629096
 C    2.743819   -0.895058   -0.571929
 C    3.579099   -0.022264    0.126297
 C    5.524412   -1.285919   -0.366074
 C    3.029125    1.098233    0.758918
 O    4.920567   -0.169652    0.249109
 O   -5.050059   -1.129349   -0.369020
 H   -2.737512   -2.093383    1.280224
 H    1.255810    2.199480    1.208548
 H   -0.443883    2.847220   -0.391718
 H   -2.872822    3.270946   -0.525091
 H   -4.482251    1.373704   -0.319641
 H   -1.182126   -1.321188    0.209380
 H    0.742244   -1.313160   -1.200378
 H    3.140554   -1.765099   -1.082152
 H    5.132053   -2.228446    0.036832
 H    5.383503   -1.270731   -1.454407
 H    6.588840   -1.214015   -0.140614
 H    3.690939    1.762287    1.304837
