25 
5qae_ligand_dft.xyz
 C    3.557250   -0.878396   -0.352692
 O    3.385003   -1.904944   -0.955797
 C    2.458522    0.103554   -0.067953
 C    0.328725    1.824015    0.420184
 C    1.627496    2.317363    0.398581
 C    2.696363    1.460966    0.158010
 C    1.150523   -0.378710   -0.072336
 C    0.071438    0.468717    0.180709
 C   -1.317272   -0.057282    0.192155
 C   -1.606413   -1.299347    0.767720
 C   -2.908740   -1.787551    0.776400
 C   -3.946993   -1.051103    0.215036
 C   -3.644704    0.177878   -0.350648
 C   -2.356815    0.686747   -0.373749
 F   -4.631127    0.899307   -0.904610
 O    4.785475   -0.561102    0.112552
 H   -0.497315    2.494853    0.637903
 H    1.808071    3.373564    0.571410
 H    3.701966    1.871740    0.106888
 H    0.989710   -1.428052   -0.298658
 H   -0.810785   -1.875934    1.229120
 H   -3.120363   -2.750180    1.231091
 H   -4.969630   -1.411033    0.208689
 H   -2.173085    1.641147   -0.855835
 H    4.731487    0.197390    0.708361
