25 
5qae_ligand_ani.xyz
 C    3.560475   -0.875292   -0.365258
 O    3.401907   -1.870433   -1.022166
 C    2.459970    0.102095   -0.068340
 C    0.329386    1.822520    0.419951
 C    1.631098    2.313226    0.409756
 C    2.700376    1.457224    0.166779
 C    1.154173   -0.377878   -0.075373
 C    0.073298    0.468081    0.180229
 C   -1.319243   -0.054598    0.194374
 C   -1.613978   -1.283510    0.793720
 C   -2.917736   -1.766551    0.816475
 C   -3.952298   -1.042954    0.232111
 C   -3.643897    0.168601   -0.365835
 C   -2.355762    0.677811   -0.390401
 F   -4.633459    0.879159   -0.935868
 O    4.776332   -0.587486    0.150249
 H   -0.499290    2.493313    0.632540
 H    1.813154    3.368416    0.595913
 H    3.710568    1.861941    0.124117
 H    0.994077   -1.427311   -0.310618
 H   -0.813700   -1.852780    1.259865
 H   -3.129351   -2.721753    1.288354
 H   -4.977446   -1.398227    0.232684
 H   -2.168605    1.625694   -0.887253
 H    4.710640    0.148970    0.773413
