25 
5qaf_ligand_ani.xyz
 C    3.628168   -1.004766   -0.117601
 O    3.331566   -2.134236   -0.798656
 C    2.531748    0.017843   -0.011716
 C   -3.933545   -0.436467    0.005018
 C   -3.049640   -1.186463    0.765747
 C   -1.708059   -0.828133    0.767186
 C    1.180312   -0.325324   -0.043933
 C    0.188457    0.650897    0.063416
 C    0.579176    1.987995    0.202164
 C    1.924876    2.333184    0.269342
 C    2.902320    1.348931    0.173666
 C   -1.249175    0.272565    0.037048
 C   -2.173233    1.005801   -0.712231
 C   -3.516909    0.655018   -0.741336
 F   -5.232735   -0.777571   -0.009151
 O    4.720091   -0.853461    0.362407
 H    2.476105   -2.038625   -1.240088
 H   -3.414139   -2.036022    1.334031
 H   -0.999902   -1.398046    1.364134
 H    0.875488   -1.368030   -0.127798
 H   -0.183056    2.758865    0.289110
 H    2.210968    3.373273    0.396213
 H    3.959081    1.590090    0.237954
 H   -1.829993    1.854496   -1.299049
 H   -4.240176    1.217233   -1.322769
