31 
5qag_ligand_ani.xyz
 C   -1.630126    1.364752    0.501496
 O   -0.770283    1.570556    1.324416
 C   -2.020545    3.669974    0.369689
 C    2.545450   -0.238498   -0.114448
 C    3.471101    0.444695   -1.075768
 C    2.994906   -0.824804    1.070370
 C    2.094869   -1.481503    1.903142
 C    0.748649   -1.551097    1.555517
 C   -2.027221    0.018860   -0.042850
 C   -3.322311   -0.155726   -0.534937
 C   -3.770874   -1.408282   -0.925631
 C   -2.924585   -2.507752   -0.821349
 C   -1.629910   -2.339032   -0.351122
 C   -1.147550   -1.077142    0.003761
 C    0.287514   -0.958520    0.379212
 C    1.199742   -0.328157   -0.464915
 O   -2.375237    2.348898   -0.037189
 O    3.261230    0.517536   -2.258073
 O    4.591065    0.994605   -0.552607
 H   -2.130609    3.784297    1.450760
 H   -0.987173    3.894639    0.093533
 H   -2.707364    4.333046   -0.156527
 H    4.052273   -0.809516    1.334206
 H    2.443995   -1.939197    2.825239
 H    0.041323   -2.067511    2.201868
 H   -3.976498    0.707241   -0.599144
 H   -4.784138   -1.528504   -1.300520
 H   -3.273849   -3.495070   -1.110730
 H   -0.966387   -3.196744   -0.272133
 H    0.869560    0.106208   -1.405427
 H    4.550003    0.991742    0.413504
