33 
5qah_ligand_xtb.xyz
 C   -4.415602   -0.488925   -0.439473
 O   -5.274929   -1.120070    0.377264
 C   -3.068288   -0.313896    0.143671
 C    1.641563    2.710644    0.455738
 C    0.550102    2.543284   -0.293086
 C   -0.521147    0.070369    1.152835
 C   -1.479965   -0.574359    1.915809
 C   -2.756192   -0.769428    1.421012
 C   -2.098785    0.329648   -0.622025
 C   -0.819915    0.526795   -0.127867
 C    0.225073    1.237658   -0.963875
 C    1.477997    0.371852   -1.191739
 C    2.512994    0.520104   -0.114334
 C    3.506870   -0.547271    0.089390
 C    4.272671   -2.636036   -0.639875
 C    2.590059    1.638984    0.627330
 O   -4.742693   -0.112001   -1.537964
 O    3.344386   -1.571934   -0.768649
 O    4.379104   -0.525353    0.926652
 H   -6.136896   -1.202683   -0.059345
 H    1.832347    3.644124    0.963465
 H   -0.186748    3.326764   -0.392886
 H    0.469075    0.220539    1.554572
 H   -1.228313   -0.923472    2.906181
 H   -3.509509   -1.266745    2.010907
 H   -2.373257    0.669043   -1.610308
 H   -0.226318    1.448282   -1.938571
 H    1.185690   -0.675154   -1.283950
 H    1.947156    0.658187   -2.139277
 H    4.214596   -3.072645    0.359527
 H    4.001118   -3.369852   -1.394454
 H    5.290102   -2.274478   -0.803870
 H    3.369405    1.736428    1.368522
