27 
5qaj_ligand_ani.xyz
 N    5.319578   -0.732666   -0.024092
 C    3.963877   -0.421402   -0.002381
 O   -3.330107   -2.151060    0.797775
 C    3.046964   -1.157407   -0.764372
 C   -0.609847    1.989988   -0.210408
 C    2.151248    1.019329    0.696985
 C    3.492513    0.673789    0.732795
 C    1.706212   -0.808658   -0.777411
 C    1.228559    0.286613   -0.053064
 C   -0.209522    0.654355   -0.079922
 C   -1.196404   -0.327715    0.027335
 C   -2.549809    0.008698    0.010811
 C   -3.640080   -1.019691    0.125892
 C   -2.929376    1.338751   -0.163668
 C   -1.957831    2.328245   -0.264409
 O   -4.738826   -0.871087   -0.339182
 H    5.537636   -1.691512   -0.255522
 H    5.847086   -0.409979    0.774751
 H   -2.469419   -2.054705    1.228678
 H    3.393593   -2.009394   -1.344699
 H    0.146731    2.766092   -0.300026
 H    1.805887    1.868264    1.282952
 H    4.190087    1.262451    1.324113
 H    1.009480   -1.387053   -1.380426
 H   -0.887601   -1.370154    0.099720
 H   -3.988007    1.574827   -0.215586
 H   -2.250087    3.367632   -0.383145
