27 
5qaj_ligand_xtb.xyz
 N    5.276899   -0.736986   -0.034164
 C    3.937492   -0.427704    0.001071
 O   -3.314874   -2.141918    0.772538
 C    3.006193   -1.212018   -0.682555
 C   -0.596348    1.979405   -0.203813
 C    2.152235    1.064361    0.631361
 C    3.485082    0.716597    0.661560
 C    1.673186   -0.863788   -0.700366
 C    1.218990    0.280405   -0.045601
 C   -0.201930    0.648426   -0.067998
 C   -1.187208   -0.329439    0.044871
 C   -2.535374    0.009693    0.007477
 C   -3.620708   -1.006203    0.113098
 C   -2.907677    1.342292   -0.155190
 C   -1.936038    2.320605   -0.249894
 O   -4.718842   -0.844020   -0.343576
 H    5.523011   -1.679330   -0.287081
 H    5.864155   -0.311786    0.663640
 H   -2.417299   -2.124127    1.130814
 H    3.342042   -2.096802   -1.204522
 H    0.157290    2.746534   -0.301828
 H    1.822596    1.943975    1.164792
 H    4.193371    1.330692    1.199278
 H    0.976268   -1.475650   -1.254637
 H   -0.876194   -1.362365    0.140782
 H   -3.957941    1.584826   -0.199001
 H   -2.223238    3.354647   -0.368915
