33 
5qak_ligand_dft.xyz
 C    4.376784    0.528014    0.485740
 C    3.281070   -1.524750   -0.368633
 C    2.160683   -2.241793   -0.766507
 C    0.905420   -1.641145   -0.762623
 C   -1.703080   -0.350641    0.086301
 C   -2.984311    0.231098    0.091918
 C   -1.992861    2.229320   -0.868249
 C   -0.730704    1.648056   -0.860765
 C    0.746592   -0.310251   -0.363864
 C   -0.587103    0.344300   -0.380410
 C    1.879786    0.396859    0.046813
 C   -3.952910   -1.872610    0.864187
 C   -5.403393    0.093561    0.391109
 C   -3.107153    1.543129   -0.406602
 C    3.139555   -0.202904    0.055600
 N   -4.079884   -0.458946    0.583068
 O    5.482434    0.228608    0.116739
 O    4.201635    1.566332    1.332909
 H    4.270540   -1.968956   -0.378350
 H    2.265040   -3.271523   -1.094116
 H    0.037433   -2.199678   -1.101122
 H   -1.556949   -1.350765    0.477179
 H   -2.118977    3.236726   -1.254584
 H    0.125614    2.184376   -1.257947
 H    1.755491    1.437795    0.338186
 H   -4.915788   -2.259793    1.201177
 H   -3.638271   -2.452578   -0.017280
 H   -3.228679   -2.052681    1.667606
 H   -5.657390    0.230276   -0.671445
 H   -6.140278   -0.577936    0.834843
 H   -5.500827    1.063028    0.893443
 H   -4.072530    2.033370   -0.438565
 H    3.291947    1.579988    1.658234
