33 
5qak_ligand_ani.xyz
 C    4.379036    0.479091    0.489810
 C    3.259157   -1.515823   -0.470969
 C    2.130517   -2.209271   -0.894026
 C    0.878855   -1.605539   -0.834603
 C   -1.715403   -0.307696    0.113843
 C   -2.986752    0.288849    0.134348
 C   -1.986937    2.286880   -0.810260
 C   -0.734010    1.687344   -0.814436
 C    0.738869   -0.289630   -0.378173
 C   -0.595116    0.375535   -0.357361
 C    1.877904    0.390315    0.054373
 C   -3.911380   -1.652548    1.290863
 C   -5.358766   -0.275540   -0.074643
 C   -3.103054    1.605132   -0.345771
 C    3.130902   -0.222381    0.033148
 N   -4.110598   -0.367768    0.657944
 O    5.474294    0.221092    0.065932
 O    4.218158    1.438399    1.428778
 H    4.249169   -1.959265   -0.520486
 H    2.224576   -3.224326   -1.269200
 H   -0.001735   -2.146463   -1.173586
 H   -1.586000   -1.324417    0.473099
 H   -2.099914    3.305809   -1.171924
 H    0.135584    2.219342   -1.191685
 H    1.772935    1.422646    0.386863
 H   -4.840043   -1.946666    1.788500
 H   -3.640102   -2.451241    0.579228
 H   -3.132494   -1.582543    2.056252
 H   -5.360596   -0.882630   -0.995564
 H   -6.172491   -0.627156    0.568125
 H   -5.584918    0.755950   -0.351666
 H   -4.063869    2.108933   -0.323992
 H    3.311531    1.422157    1.765889
