33 
5qam_ligand_ani.xyz
 N    3.614171   -0.614419   -0.492799
 C    4.631191    1.845439   -0.837294
 O   -6.287771    1.417921   -0.543161
 C    2.219871   -0.619449   -0.294406
 C   -4.848080   -0.941454    0.380155
 C   -4.231900    0.264750    0.040530
 C   -4.998486    1.540432   -0.156860
 C   -2.846153    0.327547   -0.067958
 C    1.496653   -1.667235   -0.874105
 C    0.120480   -1.730031   -0.743516
 C    1.533158    0.370672    0.411534
 C    0.151965    0.301563    0.515374
 C   -0.583710   -0.744603   -0.046065
 C   -2.057475   -0.813112    0.097236
 C   -2.691644   -2.021113    0.412808
 C   -4.072254   -2.080311    0.571056
 O   -4.519092    2.631127    0.010189
 O    4.327986    0.787325    1.535372
 O    6.005152   -0.260819   -0.047483
 S    4.738007    0.403071    0.196545
 H    4.039704   -1.457566   -0.858270
 H    3.592179    2.179874   -0.870643
 H    5.265217    2.613671   -0.391536
 H    4.987286    1.589141   -1.836860
 H   -6.481400    0.501987   -0.784752
 H   -5.924519   -0.997013    0.536461
 H   -2.391565    1.287928   -0.299833
 H    2.023341   -2.439727   -1.429226
 H   -0.424121   -2.549014   -1.207625
 H    2.063714    1.181421    0.894257
 H   -0.370923    1.075808    1.071548
 H   -2.090244   -2.914508    0.563212
 H   -4.547867   -3.023193    0.827859
