36 
5qan_ligand_ani.xyz
 N    3.971262    0.409489   -0.104024
 C    5.335579   -1.904782    0.133648
 O   -4.650846   -0.710484   -2.270233
 C    3.172587    1.052723    0.945268
 C   -4.097288   -1.035173    1.279742
 C   -3.941356   -0.506985   -0.003464
 C   -4.939601   -0.731075   -1.102502
 C   -2.798506    0.222013   -0.317566
 C    0.661827    0.815304    0.753554
 C    1.819612    1.535869    0.469007
 C    1.718092    2.703128   -0.290305
 C    0.477261    3.139583   -0.744396
 C   -0.669285    2.410249   -0.455197
 C   -0.590340    1.239502    0.304007
 C   -1.807205    0.455978    0.637239
 C   -1.980180   -0.074063    1.921063
 C   -3.114393   -0.813961    2.239150
 O   -6.215544   -0.964624   -0.723248
 O    2.748440   -1.761606    0.457557
 O    3.715054   -1.359525   -1.853701
 S    3.784229   -1.220071   -0.408420
 H    3.970111    0.905174   -0.991305
 H    5.468098   -1.692234    1.195946
 H    5.287869   -2.981700   -0.037250
 H    6.141591   -1.463701   -0.456127
 H    3.765740    1.896854    1.311202
 H    3.066046    0.335271    1.760261
 H   -4.958666   -1.652167    1.531768
 H   -2.684738    0.581765   -1.337444
 H    0.733988   -0.119281    1.307568
 H    2.615365    3.273673   -0.522670
 H    0.404232    4.049480   -1.333903
 H   -1.640566    2.753905   -0.804392
 H   -1.220203    0.109544    2.677229
 H   -3.232113   -1.221344    3.239848
 H   -6.320914   -0.800478    0.223669
