32 
5qap_ligand_ani.xyz
 C    1.592510   -2.206097    0.805425
 C   -2.584963    2.259434    0.795019
 C    0.331989   -1.624236    0.777482
 C   -1.327372    1.666327    0.784895
 N    3.669555    0.612918   -0.431510
 C   -4.678389   -0.623543   -0.597888
 O   -5.914899   -0.087537   -0.653570
 C   -3.551746    0.241026   -0.100500
 C   -3.698713    1.553937    0.353175
 C   -2.289581   -0.349289   -0.091777
 C   -1.163726    0.347413    0.346291
 C    0.178498   -0.299593    0.355245
 C    1.310272    0.405051   -0.048614
 C    2.578301   -0.180273   -0.019538
 C    5.009657    0.321290   -0.369192
 C    5.907961    1.444250   -0.854366
 C    2.724252   -1.500202    0.410853
 O    5.463131   -0.741707    0.013924
 O   -4.511952   -1.765068   -0.943117
 H    1.701932   -3.234648    1.139454
 H   -2.698375    3.282710    1.142965
 H   -0.539810   -2.186955    1.101439
 H   -0.462402    2.220517    1.140842
 H    3.422621    1.534977   -0.758081
 H   -5.911793    0.834799   -0.370218
 H   -4.666044    2.055214    0.380305
 H   -2.209931   -1.370177   -0.455942
 H    1.196320    1.426867   -0.405146
 H    6.826256    1.422993   -0.266106
 H    6.174424    1.260847   -1.900066
 H    5.448957    2.434796   -0.780808
 H    3.707026   -1.950847    0.434987
