38 
5qar_ligand_xtb.xyz
 N   -3.376664   -0.862692    0.538001
 C   -2.702890   -2.863982    1.678150
 O    5.300629   -1.581130   -0.965941
 C   -3.606125   -2.192728    0.663293
 C    2.084383    1.307029    1.633624
 C    3.296442    0.747033    1.994203
 C    3.937061   -0.142886    1.149883
 C    3.347559   -0.483743   -0.065520
 C    3.962704   -1.446877   -1.025179
 C    2.117598    0.064819   -0.411929
 C   -0.793102    0.776406   -0.568565
 C   -4.049472   -0.041933   -0.438322
 C   -3.085811    0.443510   -1.534310
 C   -2.016723    1.314338   -0.940659
 C   -2.259500    2.661908   -0.699121
 C   -1.295007    3.451368   -0.099219
 C   -0.080676    2.905950    0.275217
 C    0.184213    1.559372    0.040413
 C    1.476336    0.971001    0.424601
 O    3.319109   -2.071554   -1.822460
 O   -4.463018   -2.773474    0.034980
 H   -2.609021   -0.440987    1.037125
 H   -2.984674   -3.908287    1.772231
 H   -1.666542   -2.802039    1.352093
 H   -2.795792   -2.375977    2.645727
 H    5.702577   -0.989262   -0.316295
 H    1.591218    1.993389    2.305940
 H    3.745489    1.002720    2.942477
 H    4.870658   -0.589239    1.467027
 H    1.684151   -0.213577   -1.360611
 H   -0.597336   -0.271712   -0.746740
 H   -4.504148    0.820332    0.061690
 H   -4.835191   -0.661903   -0.875224
 H   -3.659389    1.002697   -2.274585
 H   -2.641085   -0.425388   -2.021297
 H   -3.206593    3.093249   -0.989063
 H   -1.489199    4.499313    0.075742
 H    0.675828    3.531254    0.725759
