30 
5qau_ligand_dft.xyz
 N   72.717603  235.458567   37.538788
 C   79.520476  230.739761   35.043481
 O   80.729330  230.161504   34.915641
 C   79.586216  232.225582   35.082057
 C   76.064867  234.580880   36.172105
 C   79.582601  234.999538   35.167527
 C   80.785561  234.309157   35.066468
 C   80.795443  232.919671   35.023803
 C   78.382048  232.920753   35.177627
 C   78.362925  234.314564   35.223397
 C   77.077843  235.050035   35.333051
 C   76.853676  236.224212   34.607746
 C   75.649905  236.911836   34.723326
 C   74.645773  236.436944   35.555916
 C   74.852026  235.261142   36.282054
 C   73.781144  234.777911   37.157236
 N   71.996060  234.632656   38.327252
 N   72.564745  233.485051   38.445713
 N   73.692116  233.555683   37.717218
 O   78.499710  230.094033   35.120197
 H   80.570228  229.204581   34.904598
 H   76.254556  233.692778   36.769700
 H   79.589141  236.084363   35.226146
 H   81.720999  234.858454   35.030754
 H   81.729584  232.374852   34.948267
 H   77.458297  232.350753   35.193098
 H   77.621431  236.590395   33.932285
 H   75.489865  237.819800   34.150679
 H   73.701147  236.960618   35.654673
 H   74.287683  232.745925   37.636196
