30 
5qav_ligand_ani.xyz
 N   83.185454  238.706196   31.855025
 C   79.065235  232.417277   35.890003
 N   82.463469  239.641617   32.354987
 N   81.661172  239.052349   33.252418
 C   80.103005  234.685587   35.656659
 C   79.738532  236.024652   35.832045
 C   81.278453  236.711341   34.109695
 C   80.311249  237.026673   35.065915
 C   81.923315  237.729982   33.275912
 C   78.049968  230.175529   35.951781
 C   78.474405  231.414940   36.654379
 C   81.067694  234.380873   34.690636
 C   79.294411  233.780730   37.852675
 C   78.720162  232.773307   38.622723
 C   78.303315  231.586348   38.029737
 C   79.480163  233.615269   36.474853
 C   81.656143  235.377028   33.932229
 N   82.880963  237.509910   32.397437
 O   77.503330  229.259216   36.776355
 O   78.167642  229.977419   34.763652
 H   79.177583  232.251930   34.821431
 H   80.995569  239.612122   33.762689
 H   78.979441  236.279744   36.567458
 H   80.001338  238.054970   35.233616
 H   81.368739  233.345601   34.550418
 H   79.624538  234.702378   38.326225
 H   78.590253  232.919576   39.691410
 H   77.848744  230.795630   38.618241
 H   82.409833  235.138258   33.187810
 H   77.269880  228.507547   36.207588
