30 
5qax_ligand_ani.xyz
 N    4.613113    0.458659    0.508370
 C   -4.153646   -1.276930    0.329254
 O   -5.316133   -1.121861    0.594187
 C   -3.222892   -0.142369    0.005540
 C    5.236792   -0.618429    0.098736
 C    4.597729   -1.732235   -0.504140
 C    3.242202   -1.696048   -0.675249
 C    2.522142   -0.549196   -0.250334
 C    1.118890   -0.417270   -0.382460
 C   -1.840410   -0.235094    0.170091
 C   -3.788240    1.048641   -0.447544
 C   -2.970499    2.127867   -0.763585
 C   -1.592628    2.028173   -0.602268
 C   -1.010945    0.846520   -0.129640
 C    0.463605    0.720344    0.025745
 C    1.216444    1.774654    0.610025
 C    2.568887    1.670382    0.772068
 C    3.261131    0.505913    0.338584
 O   -3.616500   -2.517114    0.308879
 H    6.317329   -0.634259    0.241948
 H    5.188961   -2.588143   -0.817562
 H    2.707710   -2.526673   -1.132076
 H    0.549186   -1.228192   -0.830512
 H   -1.387286   -1.130220    0.598298
 H   -4.868141    1.106181   -0.544066
 H   -3.407001    3.053493   -1.127321
 H   -0.952557    2.868838   -0.859474
 H    0.695702    2.666539    0.951735
 H    3.154843    2.465118    1.221301
 H   -2.720838   -2.481036   -0.054324
