29 
5qaz_ligand_dft.xyz
 N   99.262904  245.153027    4.633326
 C   96.611207  253.412956    5.675713
 O   95.962019  254.479346    6.186816
 C   96.267051  252.138024    6.357968
 C  100.525890  245.668462    4.434772
 C  100.540082  246.991568    4.764754
 C   99.211109  247.328758    5.192115
 C   98.603866  248.505319    5.648768
 C   96.875398  250.971576    5.895951
 C   95.362152  252.087702    7.419885
 C   95.079969  250.862753    8.012104
 C   95.694878  249.702573    7.553014
 C   96.602087  249.736530    6.486545
 C   97.259099  248.496915    5.999110
 C   96.514370  247.298897    5.890740
 C   97.084165  246.121781    5.444195
 C   98.437157  246.149023    5.097950
 O   97.390112  253.519766    4.755314
 H   98.989997  244.200062    4.463308
 H   96.263386  255.243169    5.670727
 H  101.321308  245.035763    4.067579
 H  101.392357  247.653272    4.709235
 H   99.187756  249.416176    5.749238
 H   97.554523  251.040803    5.052055
 H   94.889484  252.996724    7.773964
 H   94.384270  250.811355    8.844088
 H   95.485470  248.755177    8.042084
 H   95.457526  247.312634    6.141163
 H   96.494406  245.213888    5.357520
