64 
5qcm_ligand_ani.xyz
 C    2.689529   -0.691538    0.335321
 C    0.950252    2.903890   -1.241704
 C    1.075712    1.109817    0.524422
 C   -0.515454    2.933688    0.705513
 C   -0.460884    4.441831    0.627717
 C    0.448164    5.102680   -0.200458
 C    1.457437    4.314005   -1.003323
 C   -1.369042    5.178433    1.389964
 C   -4.307819    0.839263   -0.647251
 C    0.427077    6.498622   -0.252850
 C   -5.364841   -0.000702   -0.967817
Cl    6.139651   -1.720203   -3.450215
 C    5.360016   -3.364109    0.107710
 C    5.902220   -3.129976   -1.147348
 C    5.459226   -2.042589   -1.890879
 C    4.456884   -1.222255   -1.389563
 C    3.858995   -1.445241   -0.146257
 C    4.394636   -2.509688    0.608096
 N    3.967115   -2.706753    1.950018
 C    3.848296   -1.826484    2.959022
 N    3.493792   -2.468510    4.044140
 N    3.406200   -3.766978    3.683995
 N    3.695358   -3.930257    2.443820
 C    2.297815    0.525508   -0.071386
 O    0.472963    0.526879    1.434516
 F    4.042249   -0.204421   -2.155790
 N    0.639059    2.315237    0.052363
 C   -1.379034    6.566164    1.338820
 C   -0.476359    7.228339    0.510301
 C   -1.817350    2.371141    0.064650
 O   -2.400511    2.962966   -0.826294
 C   -3.361867   -0.936145    0.677426
 C   -4.419325   -1.775038    0.359094
 C   -5.434188   -1.306580   -0.475432
 C   -3.288167    0.368983    0.182229
 N   -2.184632    1.152352    0.565364
 N   -6.533830   -2.088897   -0.857428
 C   -6.830943   -3.370753   -0.478171
 O   -7.966719   -3.750353   -1.102358
 O   -6.208941   -4.077322    0.283961
 C   -8.394011   -5.076698   -0.797041
 H    2.097325   -1.182005    1.104033
 H    1.674392    2.288913   -1.777730
 H    0.028400    2.936325   -1.837970
 H   -0.489522    2.626583    1.757674
 H    1.670258    4.814248   -1.954626
 H    2.400457    4.258895   -0.445050
 H   -2.078104    4.651118    2.023976
 H   -4.268553    1.845448   -1.042397
 H    1.131880    7.016677   -0.900963
 H   -6.153074    0.369621   -1.619923
 H    5.688241   -4.202754    0.714260
 H    6.670525   -3.778139   -1.554036
 H    4.011928   -0.764399    2.854480
 H    2.877937    1.097472   -0.781969
 H   -2.087814    7.130711    1.938407
 H   -0.477142    8.314556    0.458813
 H   -2.575167   -1.313369    1.328892
 H   -4.463297   -2.782969    0.749493
 H   -1.489735    0.690383    1.144338
 H   -7.190129   -1.667671   -1.496762
 H   -8.614217   -5.174527    0.268787
 H   -7.622478   -5.802305   -1.065495
 H   -9.294047   -5.237695   -1.389819
