85 
5qcn_ligand_ani.xyz
 C    3.520520   -2.371287   -0.238919
 C    0.629816    1.371824   -1.369709
 C    2.135177   -0.425366   -0.730246
 C   -0.843444    1.456205   -1.702010
 C   -1.776460    0.606596   -1.107433
 C   -1.362174   -0.366472   -0.024520
 C   -0.005159    0.009142    0.538932
 C   -1.261392    2.415158   -2.626038
 C   -2.595889    2.503273   -2.998311
 C    3.477509    5.964520    0.995351
 C    1.128134    2.634908   -0.614924
 C    4.859096    5.778285    1.079854
Cl    3.133057   -5.429238    3.944712
 C    5.299766   -5.609260    0.593040
 C    4.778459   -5.901220    1.845949
 C    3.801805   -5.065458    2.377805
 C    3.361702   -3.944149    1.693752
 C    3.893665   -3.624948    0.441142
 C    4.836032   -4.509397   -0.110877
 N    5.306510   -4.317203   -1.439723
 C    4.622961   -4.078557   -2.571824
 N    5.465673   -4.017261   -3.572422
 N    6.684896   -4.232854   -3.031969
 N    6.608905   -4.422389   -1.764034
 C    2.369416   -1.713645   -0.041359
 O    3.003008    0.073745   -1.457568
 N    0.925043    0.188386   -0.563844
 C   -3.521249    1.617898   -2.448318
 C   -3.115516    0.659801   -1.529553
 O    0.370747    3.337776    0.029953
 N    2.480416    2.823046   -0.707691
 C    3.241549    3.831073   -0.091084
 C    4.627282    3.643028   -0.014829
 C    5.427638    4.609758    0.569827
 C    2.665645    5.000828    0.415591
 C    5.759342    6.778293    1.697644
 O    5.111664    7.866566    2.164337
 O    6.960766    6.661971    1.791931
 C   -4.102417   -0.351253   -1.003523
 O   -3.959871   -1.550831   -1.189102
 N   -5.168567    0.148917   -0.295218
 C   -6.156264   -0.804857    0.187200
 C   -7.551693   -0.190952    0.114759
 C   -7.602745    1.155211    0.852539
 C   -6.510654    2.085041    0.331405
 C   -5.148115    1.413334    0.435589
 C   -8.586182   -1.170674    0.637494
 O   -9.829591   -0.672678    0.553784
 O   -8.343324   -2.274505    1.069412
 C  -10.882483   -1.552741    0.989750
 C  -12.186902   -0.820480    0.771740
 H    4.233792   -1.960667   -0.950140
 H    1.206601    1.276694   -2.297284
 H   -1.343422   -1.375943   -0.450060
 H   -2.108019   -0.386065    0.778245
 H    0.370204   -0.728767    1.249506
 H   -0.089823    0.968946    1.066699
 H   -0.530848    3.099512   -3.049334
 H   -2.918185    3.253164   -3.713380
 H    3.035038    6.872578    1.393969
 H    6.063630   -6.237354    0.143816
 H    5.120735   -6.766217    2.404070
 H    2.626198   -3.291552    2.153829
 H    3.550773   -3.953907   -2.612685
 H    1.578094   -2.135024    0.566538
 H   -4.569626    1.668401   -2.730544
 H    3.002317    2.056527   -1.122297
 H    5.079546    2.734843   -0.408717
 H    6.502756    4.479593    0.641493
 H    1.594517    5.145155    0.363920
 H    5.803497    8.435041    2.539985
 H   -6.081881   -1.699797   -0.431176
 H   -5.941960   -1.103697    1.224398
 H   -7.791835   -0.003766   -0.940121
 H   -7.466598    0.981783    1.928917
 H   -8.591316    1.603009    0.724174
 H   -6.707522    2.331327   -0.720008
 H   -6.505469    3.028713    0.888977
 H   -4.359154    2.053331    0.039802
 H   -4.905491    1.222119    1.494283
 H  -10.830779   -2.481746    0.413551
 H  -10.722076   -1.803569    2.042823
 H  -12.211208    0.104777    1.354187
 H  -13.026780   -1.448296    1.085196
 H  -12.315645   -0.573711   -0.285731
