43 
5qik_ligand_dft.xyz
 N    4.419513    8.996497    9.849610
 C    3.802579    7.689222   10.026206
 C    5.696938    9.688962    5.448148
 C    4.960615    9.413299    8.647344
 C    7.027385    9.721795    5.866822
 C    7.588320   11.257340    4.312924
 C    6.299294   11.338584    3.798459
 C    5.340685   10.532546    4.389994
 C   -0.130858    6.268804    2.198513
 C    2.757184    7.435651    8.935670
 N    3.330088    6.831039    1.347549
 C    2.304219    6.857428    2.199332
 C    2.413883    7.238523    3.537637
 C    3.675093    7.583448    4.026263
 C    4.761941    7.541971    3.143571
 C    4.527125    7.174399    1.828374
 C    3.837054    7.942731    5.437501
 C    4.711599    8.798035    6.087937
 C    4.421746    8.686428    7.483256
 C    3.388044    7.786154    7.630638
 N    3.030636    7.356519    6.397698
 N    1.092939    6.477540    1.607277
 O    5.768719   10.325856    8.591476
 N    7.965405   10.489328    5.306661
 C   -1.201568    5.812112    1.226307
 O   -0.345645    6.432921    3.386454
 F    8.538761   12.016308    3.760434
 H    4.885897    9.403124   10.648896
 H    3.330980    7.663304   11.011770
 H    4.555665    6.887126    9.992173
 H    7.351790    9.102578    6.697552
 H    6.072026   12.010289    2.979518
 H    4.313866   10.554763    4.037749
 H    1.873707    8.064022    9.108689
 H    2.433842    6.389538    8.969389
 H    1.523519    7.279297    4.149791
 H    5.764518    7.779749    3.477371
 H    5.347865    7.139619    1.116013
 H    2.347473    6.640488    6.201351
 H    1.193121    6.280310    0.620308
 H   -2.134267    5.678554    1.773711
 H   -1.349866    6.554174    0.434674
 H   -0.920833    4.864623    0.753987
