44 
5qil_ligand_ani.xyz
 C    6.898099    9.965979    6.084623
 C    5.710622    9.712953    5.399343
 C    2.501674    7.185461    3.419943
 C    7.879040   10.970591    4.294634
 C    6.738444   10.790633    3.498699
 C    5.659045   10.160072    4.061942
 C    0.071234    6.397052    1.864965
 C    4.890647    7.100002    3.423448
 C    4.813963    6.454627    2.198598
 C   10.087491   11.778123    4.508842
 C    4.091782    9.174338    7.353279
 C    2.900669    8.436026    7.464284
 C    2.183569    8.423592    8.660766
 C    2.713997    9.169339    9.692474
 C    3.914699    9.880861    9.498133
 N    4.609571    9.899253    8.376371
 C    4.576315    9.012031    6.000047
 C    3.690308    8.137358    5.378434
 N    2.673425    7.840276    6.252534
 C    3.702930    7.480168    4.058366
 N    3.669767    6.164724    1.573378
 C    2.545753    6.532670    2.189631
 N    7.962018   10.571816    5.550593
 N    1.378362    6.198252    1.488954
 O   -0.261415    6.927963    2.908594
 C   -0.928482    5.886344    0.843668
 O    8.923336   11.587154    3.714491
 H    6.996116    9.657836    7.121610
 H    1.536006    7.459727    3.825737
 H    6.738637   11.147278    2.474401
 H    4.760668    9.986498    3.472901
 H    5.856730    7.309397    3.868933
 H    5.724980    6.151882    1.688471
 H   10.800730   12.286275    3.858892
 H    9.866520   12.392155    5.387225
 H   10.493723   10.819641    4.846072
 H    1.259811    7.863962    8.778969
 H    2.216873    9.215081   10.656548
 H    4.325428   10.464739   10.319580
 H    1.952330    7.161520    6.058023
 H    1.560997    5.736899    0.610253
 H   -1.934644    6.085847    1.210558
 H   -0.786361    6.385817   -0.120274
 H   -0.805407    4.809788    0.686069
