73 
5qtu_ligand_dft.xyz
 C    4.239708    2.116587   -0.559353
 C    1.944667    0.293296    0.660502
 C    2.955873    0.189024    1.614392
 C    2.685443    0.695635    2.885529
 C    8.630816   -2.461288   -0.688685
 C   10.571150   -3.376888   -1.616360
 C   -0.059509    2.844389   -0.478461
 C    1.378313    3.345821   -0.655422
 C   -0.205051    1.344202   -0.120479
 C   -7.770068   -1.424950   -0.160346
 C   -9.124985   -1.707757   -0.298252
Cl   -9.614351   -3.284474   -0.829873
 C    4.970172   -0.158688    0.111463
 C    4.256973   -0.441896    1.289053
 C    4.804949   -1.385195    2.161619
 C    5.980593   -2.057573    1.872240
 C    6.660867   -1.790263    0.681447
 C    6.156296   -0.824494   -0.188627
 N    4.504094    0.790068   -0.834499
 N    7.842482   -2.502983    0.430095
 C    0.774914    0.975666    0.968843
 N   -1.558551    1.047444    0.295052
 N    0.511289    1.449331    2.191709
 C    1.447529    1.280614    3.125948
 O    8.463470   -1.777279   -1.674632
 O    9.655191   -3.323171   -0.525219
 C    2.147009    2.702554   -1.816964
 C    3.681663    2.901521   -1.747657
 O    4.379012    2.592502    0.551169
 C    4.082537    4.371761   -1.651457
 C   -2.523262    0.717393   -0.593062
 O   -2.321219    0.599132   -1.800993
 C   -9.653126    0.523751    0.432299
 C  -10.069238   -0.731339    0.002170
 C   -7.348584   -0.161895    0.253600
 C   -8.298181    0.811397    0.550942
 N   -5.966562    0.111357    0.389500
 C   -5.020134    0.156961   -0.618908
 C   -3.856829    0.507027    0.021343
 N   -4.064433    0.675634    1.375682
 C   -5.329530    0.435814    1.562340
 C   -5.338698   -0.106216   -2.049441
 F   -6.864458   -2.362428   -0.423511
 H    2.086618   -0.114243   -0.333705
 H    3.437436    0.664661    3.667155
 H   11.323268   -4.110037   -1.326850
 H   11.033112   -2.400362   -1.780199
 H   10.064009   -3.691122   -2.531655
 H   -0.653696    3.024019   -1.382376
 H   -0.523158    3.411508    0.336735
 H    1.343379    4.430681   -0.810352
 H    1.929114    3.194530    0.279334
 H   -0.010016    0.738852   -1.009961
 H    4.270906   -1.624135    3.076574
 H    6.363076   -2.801292    2.566436
 H    6.696935   -0.581082   -1.093662
 H    4.567219    0.521352   -1.805268
 H    8.146607   -3.148156    1.144037
 H   -1.806534    1.176749    1.268573
 H    1.208362    1.663994    4.115574
 H    1.789508    3.118782   -2.767461
 H    1.942056    1.626858   -1.865277
 H    4.103133    2.480431   -2.671233
 H    3.789866    4.787524   -0.684686
 H    3.599632    4.949312   -2.446866
 H    5.165916    4.490917   -1.748886
 H  -10.390867    1.283714    0.664682
 H  -11.122797   -0.963125   -0.107167
 H   -7.956773    1.792462    0.864312
 H   -5.859395    0.458693    2.505050
 H   -5.575956   -1.161950   -2.215467
 H   -4.463319    0.152834   -2.645654
 H   -6.197067    0.490283   -2.379198
