73 
5qtu_ligand_ani.xyz
 C    4.249046    2.103826   -0.620262
 C    1.971115    0.337037    0.661183
 C    2.968112    0.237849    1.628147
 C    2.642435    0.700356    2.906222
 C    8.584522   -2.534101   -0.675528
 C   10.441963   -3.595626   -1.615217
 C   -0.059056    2.845390   -0.555743
 C    1.377693    3.347984   -0.737715
 C   -0.187316    1.355225   -0.160413
 C   -7.776794   -1.431794   -0.271399
 C   -9.135183   -1.713754   -0.323962
Cl   -9.678563   -3.125154   -1.166817
 C    4.973188   -0.144620    0.101678
 C    4.307079   -0.338478    1.325598
 C    4.915653   -1.184267    2.262644
 C    6.085572   -1.859569    1.982372
 C    6.690454   -1.716586    0.727573
 C    6.125087   -0.864036   -0.211187
 N    4.503764    0.766701   -0.875397
 N    7.858175   -2.451913    0.483659
 C    0.775383    0.989192    0.952190
 N   -1.531077    1.053194    0.281517
 N    0.454371    1.394663    2.183239
 C    1.389502    1.252029    3.129722
 O    8.387179   -1.945734   -1.715742
 O    9.598871   -3.403942   -0.480846
 C    2.152277    2.680836   -1.879398
 C    3.683826    2.880307   -1.810793
 O    4.418650    2.597528    0.477398
 C    4.096696    4.348650   -1.721924
 C   -2.540073    0.865952   -0.592864
 O   -2.400831    0.971233   -1.811204
 C   -9.585690    0.260206    0.966645
 C  -10.047064   -0.866114    0.294142
 C   -7.306776   -0.299903    0.398645
 C   -8.226518    0.538363    1.024729
 N   -5.914645   -0.010544    0.468334
 C   -5.041915    0.277151   -0.569907
 C   -3.832614    0.516225    0.046752
 N   -3.939975    0.394326    1.410489
 C   -5.186306    0.087193    1.627090
 C   -5.450103    0.324104   -2.005554
 F   -6.907134   -2.259731   -0.865607
 H    2.142624   -0.065911   -0.331249
 H    3.361451    0.650736    3.719700
 H   11.190211   -4.323639   -1.302968
 H   10.918295   -2.655795   -1.904509
 H    9.867474   -3.975685   -2.463401
 H   -0.652660    2.989207   -1.466789
 H   -0.539660    3.431973    0.236476
 H    1.342163    4.431478   -0.909295
 H    1.923671    3.210012    0.205961
 H    0.027750    0.736616   -1.040821
 H    4.432493   -1.340859    3.224322
 H    6.529994   -2.513205    2.728691
 H    6.599958   -0.744272   -1.179408
 H    4.681180    0.493048   -1.830797
 H    8.187443   -3.036722    1.235504
 H   -1.711329    0.986235    1.276526
 H    1.119076    1.595843    4.126030
 H    1.786728    3.064535   -2.842142
 H    1.952260    1.601902   -1.893614
 H    4.113219    2.437015   -2.720981
 H    3.783111    4.778203   -0.765658
 H    3.648107    4.930859   -2.535075
 H    5.183892    4.454565   -1.786520
 H  -10.291877    0.924569    1.454671
 H  -11.106450   -1.096983    0.244502
 H   -7.858620    1.417577    1.545876
 H   -5.647973   -0.093938    2.589707
 H   -5.762507   -0.664996   -2.359772
 H   -4.597229    0.660528   -2.599069
 H   -6.293430    1.010494   -2.150078
