56 
5swh_ligand_dft.xyz
 C    0.897726    4.808286    0.031939
 C    0.191272    2.755388   -0.391623
 C    1.457809    2.201768   -0.184450
 C    1.352059    0.789790   -0.431522
 C    2.424052   -0.219887   -0.312556
 C    2.821263   -0.982516   -1.415129
 C   -1.343937   -1.245289    0.327064
 C   -0.394673   -1.896469    1.229568
 C   -2.513962   -2.170680   -0.045674
 C   -4.916484   -2.153066   -0.588331
 C   -5.567836   -2.874211    0.592891
 C   -5.844077   -1.115761   -1.214608
 C   -2.049929    2.005166   -1.116137
 C   -2.946626    2.397248    0.048272
 O   -2.369452   -3.358260   -0.273379
 N   -3.680490   -1.494147   -0.185261
 N    0.376223   -2.364634    1.954341
 C   -0.636864   -0.760339   -0.974858
 C    0.042331    0.551435   -0.766618
 N   -0.672289    1.749601   -0.734210
 O   -3.216118    1.256903    0.839837
 C   -3.889119    1.554862    2.044069
 N   -0.141145    4.051472   -0.300272
 N    2.161767    4.434279    0.260555
 C    2.463977    3.133206    0.152156
 N    3.747029    2.773759    0.399469
 C    3.065867   -0.430588    0.913007
 C    4.078659   -1.373630    1.037679
 C    4.448885   -2.121607   -0.074492
Cl    5.720802   -3.311015    0.075018
 C    3.825289   -1.937948   -1.302822
 H    0.703180    5.873879    0.130349
 H    2.343718   -0.817261   -2.376647
 H   -1.734317   -0.364173    0.845723
 H   -4.639793   -2.898730   -1.340279
 H   -6.474991   -3.398087    0.273323
 H   -4.874144   -3.607389    1.012594
 H   -5.842263   -2.158178    1.376629
 H   -6.770219   -1.587584   -1.555308
 H   -6.113454   -0.342659   -0.483665
 H   -5.369353   -0.629316   -2.073021
 H   -2.456219    1.117099   -1.605846
 H   -2.054962    2.824958   -1.840845
 H   -3.887888    2.808402   -0.347906
 H   -2.456205    3.175850    0.645452
 H   -3.715875   -0.522349    0.108883
 H   -1.388087   -0.695339   -1.768584
 H    0.088537   -1.511892   -1.291324
 H   -4.856172    2.039726    1.850323
 H   -4.057099    0.605736    2.557099
 H   -3.281611    2.210277    2.681466
 H    4.073715    1.848395    0.171488
 H    4.421399    3.516288    0.497947
 H    2.751671    0.136833    1.783540
 H    4.562307   -1.541408    1.993358
 H    4.127290   -2.528213   -2.161021
