19 
5sxk_ligand_dft.xyz
 C    1.116732    1.503618   -0.000057
 C   -0.129618    2.110473   -0.000053
 C   -1.292451    1.357402   -0.000023
 C    1.198112    0.104130   -0.000022
 C    0.032377   -0.687699   -0.000104
 C    0.187407   -2.188696   -0.000061
 N    2.438669   -0.497989    0.000308
 C   -1.220478   -0.045719    0.000006
 N   -2.401520   -0.758521    0.000182
 H    2.026044    2.098296    0.000002
 H   -0.196464    3.195082   -0.000056
 H   -2.264524    1.843029    0.000044
 H    0.736908   -2.536181   -0.886012
 H    0.736701   -2.536144    0.886023
 H   -0.762187   -2.727784   -0.000230
 H    3.271419    0.063139   -0.000232
 H    2.550338   -1.494465   -0.000717
 H   -3.278867   -0.270519   -0.000034
 H   -2.431910   -1.759935   -0.000336
