51 
5sy2_ligand_ani.xyz
 N   -1.729824   -1.192315    0.573305
 C   -3.064021   -0.529054    0.565938
 C   -3.096985    0.905969    1.141260
 C   -2.866485    2.038734    0.134192
 C   -3.753957    1.835163   -1.092451
 C   -0.794255   -0.909697   -0.378661
 C    0.695514   -2.983909   -0.377746
 C    2.953014   -2.788670   -0.329021
 C    2.864248    1.305721   -0.410517
 C    2.510235    2.651163    0.124905
 C    3.145981    3.560469    0.903915
 C    1.146417    4.354108    0.312927
 C   -2.096084   -3.284884    1.901584
 C   -1.433368   -1.912435    1.819630
 N   -3.452597    0.515015   -1.700274
 C   -3.806652   -0.601438   -0.779939
 O   -0.974948   -0.027997   -1.233419
 C    0.526062   -1.615142   -0.346781
 N    1.888792   -3.594482   -0.376491
 C    4.300833   -3.443958   -0.299547
 N    2.929938   -1.451495   -0.330491
 C    1.732499   -0.859860   -0.388701
 N    1.684486    0.481715   -0.444746
 C    2.251572    4.674710    1.027104
 O    1.284311    3.118282   -0.240024
 H   -3.648026   -1.138812    1.263866
 H   -4.105287    1.040027    1.559841
 H   -2.395466    0.985269    1.980330
 H   -3.108604    2.998236    0.605286
 H   -1.814353    2.092858   -0.169264
 H   -4.805927    1.855958   -0.780640
 H   -3.610121    2.624968   -1.832403
 H   -0.171973   -3.643310   -0.417556
 H    3.312301    1.392688   -1.414425
 H    3.621432    0.827973    0.217278
 H    4.129635    3.460310    1.345994
 H    0.213602    4.861551    0.113356
 H   -3.185404   -3.205234    1.824062
 H   -1.755211   -3.954346    1.106394
 H   -1.862021   -3.757342    2.861419
 H   -1.784612   -1.300894    2.662518
 H   -0.352272   -1.993367    1.934452
 H   -2.416518    0.447282   -1.837788
 H   -3.928137    0.396164   -2.604557
 H   -3.601783   -1.554350   -1.267313
 H   -4.880697   -0.549800   -0.563951
 H    4.184807   -4.506361   -0.075810
 H    4.942900   -2.968396    0.447147
 H    4.786842   -3.340976   -1.275338
 H    0.809713    0.926616   -0.690726
 H    2.417306    5.589997    1.577703
