31 
5sy3_ligand_ani.xyz
 C   -0.660842   -3.203264    0.244524
 C   -2.149000   -1.561645    0.125011
 C   -3.871754    1.901395   -0.101922
 C   -1.067006    2.010156   -0.039042
 C   -1.161406   -0.587805   -0.001866
 C    3.716396    1.034920    0.782287
 C    2.537756   -0.858637   -0.586296
 N    1.232261   -0.285114   -0.311760
 C    0.158856   -1.095797   -0.088471
 N    0.389955   -2.397743    0.078310
 N   -1.941277   -2.873775    0.264532
 S   -3.770157   -0.890138    0.089984
 C   -3.112201    0.733104   -0.030814
 C   -3.214952    3.117255   -0.139855
 C   -1.814763    3.168307   -0.097850
 C   -1.710402    0.759445   -0.036250
 C    3.638539    0.023542   -0.115744
 C    5.089782    1.447846    0.800259
 C    5.731789    0.650016   -0.087206
 O    4.863874   -0.228965   -0.652844
 H   -0.432370   -4.262482    0.367472
 H   -4.956913    1.854541   -0.120896
 H    0.013449    2.082115    0.034474
 H    2.898419    1.425690    1.373516
 H    2.673563   -1.091709   -1.651667
 H    2.569418   -1.819102   -0.059902
 H    1.023988    0.569207   -0.807690
 H   -3.788177    4.038522   -0.193007
 H   -1.309882    4.130158   -0.114672
 H    5.531189    2.234151    1.397501
 H    6.757526    0.576245   -0.420298
