53 
5syn_ligand_ani.xyz
 C   -5.503018    0.477224   -1.441455
 C    1.169299   -1.374004    0.215847
 C   -1.520340   -0.983671   -1.061007
 C   -2.651823   -0.046628   -0.671682
 C   -7.110672    0.566238    0.817425
 C    2.581002    0.465885    0.010986
 C    3.511451   -0.551125   -0.065890
 C    4.938540   -0.343742   -0.302597
 C    5.804503   -1.359127   -0.747496
 C    2.939795    1.905716   -0.141453
 C   -2.375514   -2.648099    0.473233
 C    5.498676    0.932004   -0.121415
 C    7.660401    0.188479   -0.842171
 N   -3.822414   -0.833494   -0.288836
 C   -9.561226    1.907243    0.633519
 O   -8.721622    1.837127   -0.498072
 C   -7.541936    1.175011   -0.356202
 N   -1.222333   -1.852660    0.072895
 O    5.032784    3.514159    0.055548
 S    2.742536   -2.101567    0.114958
 O    4.429804    2.038613    2.026947
 C   -5.881936   -0.091228    0.855399
 O    0.189606   -3.385506    0.969504
 C   -5.055849   -0.149056   -0.269053
 C    0.020107   -2.290764    0.449117
 C    1.256031   -0.006928    0.176090
 C    7.138660   -1.094070   -1.010627
 C    6.832203    1.204757   -0.393829
 C   -3.532983   -1.725399    0.825424
 C   -6.725618    1.119634   -1.489207
 S    4.541741    2.247000    0.587648
 H   -4.881483    0.429983   -2.332525
 H   -0.632141   -0.429521   -1.366940
 H   -1.834101   -1.597790   -1.917778
 H   -2.900597    0.600574   -1.516070
 H   -2.329624    0.607060    0.157517
 H   -7.719031    0.584563    1.715937
 H    5.419726   -2.362654   -0.901889
 H    2.228515    2.554274    0.379102
 H    2.998793    2.227890   -1.188491
 H   -2.086215   -3.261590    1.327242
 H   -2.665430   -3.325139   -0.343146
 H    8.705385    0.389437   -1.057099
 H   -9.867819    0.907358    0.968313
 H   -9.070070    2.428155    1.466145
 H  -10.441651    2.470989    0.322268
 H   -5.568737   -0.552628    1.787398
 H    0.416383    0.668691    0.307089
 H    7.780381   -1.899313   -1.357766
 H    7.193480    2.219688   -0.250998
 H   -3.275384   -1.161369    1.741260
 H   -4.420197   -2.330909    1.040554
 H   -7.068487    1.603153   -2.399385
