27 
5sz4_ligand_xtb.xyz
 C    0.386452   -1.087326    0.518846
 C   -0.995759   -1.073973    0.552728
 C   -1.670398    0.046665    0.112646
 S   -3.448001    0.044944    0.108898
 O   -3.934061   -0.910716    1.061353
 O   -3.935771    1.392987    0.149640
 N   -3.750292   -0.565712   -1.436037
 C   -0.995443    1.155370   -0.355919
 C    0.386929    1.141892   -0.386196
 C    1.093578    0.019147    0.046618
 C    2.563975    0.002480    0.008434
 C    3.248423   -1.135021   -0.414091
 C    4.630220   -1.149306   -0.454809
 C    5.350064   -0.031406   -0.067383
 C    4.679583    1.103126    0.358268
 C    3.297570    1.122659    0.392827
 H    0.926395   -1.950192    0.878924
 H   -1.564524   -1.909552    0.928089
 H   -4.232833   -1.448660   -1.396117
 H   -4.249571    0.098307   -2.005127
 H   -1.563710    2.013099   -0.678379
 H    0.926342    1.997554   -0.763740
 H    2.691477   -2.003491   -0.733871
 H    5.148079   -2.035609   -0.791041
 H    6.429439   -0.044570   -0.097110
 H    5.236277    1.976258    0.665604
 H    2.780179    2.003732    0.742903
