30 
5sz5_ligand_xtb.xyz
 C    2.685700    2.234410    0.547661
 C    3.230176    0.882194    0.194595
 C    4.606000    0.700147    0.119029
 C    5.155228   -0.532083   -0.182724
 C    4.326034   -1.619055   -0.401589
 C    2.956486   -1.457572   -0.322499
 C    2.396041   -0.214333   -0.039320
 C    0.924314   -0.109076    0.007772
 C    0.241883    0.779834   -0.821213
 C   -1.139563    0.841963   -0.792461
 C   -1.833350    0.018844    0.070943
 S   -3.610393    0.064839    0.073834
 O   -4.106991   -0.425721    1.326731
 O   -4.064420    1.333742   -0.417014
 N   -3.948543   -1.094432   -1.106298
 C   -1.180962   -0.868390    0.902460
 C    0.200128   -0.934726    0.866595
 H    3.361185    2.743297    1.232203
 H    2.594240    2.852258   -0.345835
 H    1.704971    2.158830    1.010377
 H    5.255923    1.543621    0.304396
 H    6.227538   -0.646046   -0.239909
 H    4.744523   -2.587571   -0.631018
 H    2.300240   -2.297706   -0.499097
 H    0.798624    1.407957   -1.499670
 H   -1.692448    1.524051   -1.418264
 H   -4.448878   -1.878909   -0.721133
 H   -4.442313   -0.693563   -1.887020
 H   -1.764387   -1.481983    1.570038
 H    0.729479   -1.617749    1.514454
