29 
5sz6_ligand_ani.xyz
 O    6.189028   -1.612126   -0.377435
 C    4.979486   -1.631437   -0.354179
 C    4.126903   -0.441569   -0.114368
 C    2.742362   -0.583488   -0.104506
 C    4.704751    0.809216    0.111924
 C    3.884699    1.907534    0.338932
 C    2.499723    1.763490    0.333367
 C    1.908376    0.513701    0.116684
 C    0.430126    0.357321    0.118124
 C   -0.175889   -0.702274    0.803081
 C   -1.554856   -0.854448    0.803514
 C   -2.334270    0.052010    0.090224
 S   -4.091758   -0.160145    0.045019
 O   -4.477083   -0.930300    1.217115
 O   -4.686082    1.130120   -0.266991
 N   -4.335720   -1.148020   -1.282517
 C   -1.757829    1.117827   -0.594684
 C   -0.378539    1.266700   -0.571416
 H    4.423921   -2.581091   -0.518144
 H    2.298582   -1.561172   -0.289190
 H    5.787297    0.897471    0.105745
 H    4.323364    2.886102    0.513886
 H    1.864122    2.626146    0.519597
 H    0.445624   -1.401171    1.357042
 H   -2.027677   -1.664528    1.350022
 H   -4.785781   -2.010748   -0.995169
 H   -4.865476   -0.655866   -1.994188
 H   -2.388565    1.826245   -1.122771
 H    0.085592    2.088032   -1.111199
