44 
5t1u_ligand_dft.xyz
 C   -3.167708   -0.633173   -2.173687
 C   -2.491350   -0.726989   -0.800371
 C   -3.473734   -1.288254    0.238659
 C   -2.851341   -1.439937    1.615088
 S   -1.399298   -2.556078    1.619967
 C   -0.821161   -2.434346   -0.011309
 N   -1.389518   -1.702478   -0.954633
 N    0.252195   -3.169407   -0.306796
 C   -1.906462    0.626951   -0.385079
 C   -0.537518    0.827483   -0.229530
 C    0.024530    2.060048    0.086895
 C   -0.847196    3.126015    0.265983
 C   -2.223365    2.987698    0.144884
 C   -2.723796    1.742702   -0.183940
 F   -4.058871    1.615897   -0.307790
 F   -0.356615    4.331235    0.567107
 C    1.531916    2.210315    0.172952
 N    2.160469    1.040887    0.764751
 C    3.337138    0.474419    0.189637
 C    4.697339    0.691096    0.813685
 C    4.383334    1.311605   -0.510612
 C    3.082871   -0.906980   -0.357886
 F    2.106702   -0.910034   -1.314718
 F    2.644407   -1.747265    0.603500
 F    4.159766   -1.466585   -0.916098
 H   -3.993227    0.077923   -2.129941
 H   -2.460117   -0.274467   -2.928901
 H   -3.559732   -1.607792   -2.480094
 H   -4.314637   -0.597152    0.322924
 H   -3.863856   -2.247261   -0.118465
 H   -2.524974   -0.477927    2.015533
 H   -3.553159   -1.895997    2.316216
 H   -0.948402   -1.716780   -1.868036
 H    0.822726   -2.930403   -1.107882
 H    0.158536    0.009533   -0.359559
 H   -2.887163    3.830418    0.295352
 H    1.921261    2.327974   -0.843592
 H    1.778041    3.134799    0.708633
 H    2.194751    1.077329    1.773883
 H    0.739513   -3.658093    0.431595
 H    5.393571   -0.140022    0.842711
 H    4.718690    1.336651    1.685868
 H    4.858474    0.902959   -1.395653
 H    4.206954    2.381394   -0.543536
