44 
5t1u_ligand_ani.xyz
 C   -3.435058   -0.526600   -2.141234
 C   -2.718101   -0.674432   -0.802834
 C   -3.718669   -1.114081    0.281580
 C   -3.054387   -1.316389    1.638147
 S   -1.773697   -2.633433    1.597823
 C   -1.071040   -2.360141    0.026123
 N   -1.726178   -1.764052   -0.977340
 N    0.188410   -2.789603   -0.157232
 C   -2.003335    0.631126   -0.422322
 C   -0.617961    0.700895   -0.284381
 C    0.059039    1.870219    0.042990
 C   -0.705142    3.010894    0.250788
 C   -2.084699    3.008627    0.137690
 C   -2.702793    1.813478   -0.200009
 F   -4.050144    1.831078   -0.314307
 F   -0.092951    4.164318    0.576554
 C    1.563221    1.858572    0.129240
 N    2.017668    0.600092    0.711525
 C    3.369061    0.224410    0.450637
 C    4.321780   -0.074486    1.566004
 C    4.550475    1.125520    0.688453
 C    3.474170   -0.699300   -0.734827
 F    3.020747   -0.128586   -1.863671
 F    2.768598   -1.827538   -0.541297
 F    4.752168   -1.068095   -0.968086
 H   -4.181118    0.268035   -2.095988
 H   -2.715762   -0.275450   -2.929128
 H   -3.931625   -1.467108   -2.403417
 H   -4.511741   -0.367870    0.371957
 H   -4.159468   -2.059827   -0.047054
 H   -2.577000   -0.391037    1.975759
 H   -3.778284   -1.634874    2.390744
 H   -1.208283   -1.686767   -1.849974
 H    0.747443   -2.428470   -0.924612
 H   -0.030178   -0.192444   -0.441523
 H   -2.660887    3.910741    0.306167
 H    1.993111    1.923043   -0.876963
 H    1.912934    2.741144    0.686123
 H    1.780157    0.524529    1.695671
 H    0.723194   -3.024567    0.671062
 H    4.982806   -0.925527    1.445041
 H    3.973333    0.094264    2.582377
 H    5.358216    1.083545   -0.032832
 H    4.357868    2.108064    1.113743
