53 
5t23_ligand_xtb.xyz
 C    2.940605    3.763555    0.010240
 C    1.725635    3.070375    0.105229
 C    4.141608    3.107791   -0.120487
 C    2.869397    1.021100   -0.054999
 C    0.328439   -2.302708    0.088886
 C    2.427249   -1.429721   -0.038556
 C    2.988090   -2.749943   -0.003462
 C   -1.094841   -2.081922    0.103859
 C   -2.983493   -1.127234    0.006239
 C   -3.047851    1.723941    1.330849
 C   -3.271312    2.335461   -0.986713
 C   -1.929136    2.762233    1.462474
 C   -2.130204    3.339133   -0.777480
 C   -3.954511   -0.002307   -0.189918
 N   -1.687680   -0.866920   -0.058741
 N    4.581429   -0.366046   -0.224022
 N    3.233170   -0.300648   -0.106041
 N    4.296391   -2.990167   -0.072532
 C    1.661784    1.693510    0.070921
 C    0.866851   -3.586795    0.154477
 C    4.100337    1.715042   -0.149989
 C   -4.648985   -0.124157   -1.542847
 C   -4.391680   -3.190371    0.331112
 N    2.165161   -3.798056    0.106107
 N    5.091360    0.785179   -0.252297
 N    1.131564   -1.230230    0.000287
 N   -1.988530   -3.042251    0.266118
 N   -3.177401   -2.437343    0.204122
 N   -3.069271    1.208402   -0.056846
 O   -2.104768    3.809609    0.544068
 H    2.922085    4.841840    0.043557
 H    0.820969    3.651625    0.213855
 H    5.080911    3.629369   -0.193009
 H   -4.014360    2.185639    1.548573
 H   -2.866688    0.899866    2.021592
 H   -4.229432    2.813315   -0.768663
 H   -3.257688    1.983855   -2.016492
 H   -0.956129    2.271291    1.314485
 H   -1.950810    3.215370    2.454317
 H   -1.173132    2.862740   -1.040923
 H   -2.279398    4.213604   -1.412220
 H   -4.713157    0.028286    0.600285
 H    4.602924   -3.947892   -0.038585
 H    4.942169   -2.212213   -0.157109
 H    0.741796    1.134845    0.138772
 H    0.231841   -4.455022    0.243381
 H   -5.252007   -1.028782   -1.542713
 H   -5.315025    0.713703   -1.727124
 H   -3.928204   -0.204993   -2.352871
 H   -4.792522   -3.444509   -0.651858
 H   -5.132235   -2.623988    0.894196
 H   -4.154023   -4.113325    0.856534
 H   -2.110982    0.753179   -0.222618
