53 
5t23_ligand_ani.xyz
 C    2.585260    3.981063   -0.635467
 C    1.527319    3.096149   -0.951142
 C    3.782004    3.517746   -0.136417
 C    2.850278    1.274867   -0.249796
 C    0.714403   -2.307949    0.005097
 C    2.686705   -1.196891    0.009947
 C    3.404432   -2.444736    0.024784
 C   -0.748325   -2.225068    0.001756
 C   -2.675212   -1.403622   -0.025586
 C   -3.217520    1.341868    1.513137
 C   -3.900276    2.028308   -0.728287
 C   -2.506112    2.681422    1.642735
 C   -3.156199    3.334644   -0.488263
 C   -3.855314   -0.469101   -0.103027
 N   -1.401901   -1.037732   -0.064409
 N    4.639625    0.160187    0.491974
 N    3.350233    0.028860    0.052798
 N    4.760064   -2.525648   -0.027875
 C    1.632458    1.731148   -0.768859
 C    1.391031   -3.525357    0.051608
 C    3.905065    2.131917    0.046118
 C   -4.676633   -0.640986   -1.382917
 C   -3.917633   -3.621653    0.123590
 N    2.722132   -3.588713    0.051218
 N    4.972823    1.388409    0.497689
 N    1.375963   -1.148769   -0.036286
 N   -1.533849   -3.285549    0.073433
 N   -2.770751   -2.743475    0.060448
 N   -3.271984    0.918270    0.060946
 O   -3.131529    3.694061    0.879150
 H    2.447667    5.046867   -0.794528
 H    0.608478    3.514265   -1.355689
 H    4.607658    4.176813    0.106857
 H   -4.241119    1.429569    1.896390
 H   -2.691946    0.573515    2.087771
 H   -4.945456    2.155507   -0.418552
 H   -3.880695    1.784114   -1.792601
 H   -1.452826    2.566745    1.331164
 H   -2.521723    3.013813    2.684114
 H   -2.126264    3.244196   -0.875413
 H   -3.652213    4.151978   -1.019271
 H   -4.519221   -0.649175    0.754312
 H    5.140027   -3.441221    0.155063
 H    5.300266   -1.703197    0.211933
 H    0.834436    1.038468   -0.999851
 H    0.844850   -4.464473    0.084179
 H   -5.078712   -1.654569   -1.444994
 H   -5.520312    0.052919   -1.388964
 H   -4.065314   -0.464434   -2.274295
 H   -4.222043   -3.953802   -0.875715
 H   -4.759513   -3.124966    0.613455
 H   -3.626248   -4.491878    0.711368
 H   -2.278402    0.782973   -0.243536
