49 
5t2i_ligand_xtb.xyz
 C    6.904523    0.680388    1.529885
 C    5.686328    0.496388    2.163326
 C    6.935115    1.012072    0.186799
 C   -0.957707   -3.185815   -0.074434
 C   -3.641027    0.967102    0.051402
 C   -4.872626    1.590336    0.150104
 C    4.529890    0.977869    0.103026
 C   -0.662274   -1.823932   -0.153992
 C   -2.875731   -1.351805    0.080316
 C   -3.182814   -2.737450    0.170437
 C    0.693379   -1.350345   -0.326557
 C    2.351506   -0.064134   -0.510053
 C   -5.102132    3.044204    0.096063
 C    3.225255    1.117131   -0.606414
 C    4.081234   -1.881421   -0.862573
 N   -1.644363   -0.923182   -0.075579
 N    1.721280   -2.165569   -0.503283
 N   -3.859286   -0.359284    0.142796
 N   -6.401911    3.424906    0.206289
 C    4.508536    0.644881    1.455368
 C    5.756030    1.157921   -0.523764
 C   -5.785804    0.524895    0.302840
 C    2.516959    2.451661   -0.568298
 C    3.081595    1.953592   -1.856401
 N   -2.190486   -3.629067    0.085036
 N   -5.162610   -0.633146    0.296117
 N    1.049706   -0.044820   -0.326922
 N    2.772416   -1.347820   -0.624646
 N   -4.432627   -3.197779    0.340729
 O   -4.207553    3.852563   -0.037517
 H    7.825743    0.565570    2.081379
 H    5.654645    0.238230    3.211548
 H    7.882029    1.155399   -0.313100
 H   -0.177312   -3.928624   -0.141984
 H   -2.656914    1.367272   -0.073692
 H    4.566440   -1.339902   -1.674554
 H    4.701321   -1.809581    0.033497
 H    3.960044   -2.928048   -1.135238
 H   -6.613584    4.407614    0.174512
 H   -7.152709    2.769583    0.314943
 H    3.556052    0.505600    1.946870
 H    5.796974    1.403982   -1.574625
 H   -6.852369    0.543557    0.416387
 H    3.022921    3.264085   -0.069027
 H    1.447975    2.427507   -0.431919
 H    2.394013    1.602441   -2.610966
 H    3.959517    2.440164   -2.252245
 H   -5.187480   -2.525309    0.389149
 H   -4.573136   -4.190946    0.382949
