49 
5t2i_ligand_ani.xyz
 C    5.976441    1.782568    2.126133
 C    4.822837    1.069595    2.435805
 C    6.253255    2.080888    0.794882
 C   -1.250835   -3.333916    0.239791
 C   -3.316774    1.116653   -0.058947
 C   -4.403536    1.945981    0.018034
 C    4.249304    0.913249    0.081920
 C   -0.807628   -2.035639   -0.012981
 C   -2.929141   -1.270712    0.155314
 C   -3.410565   -2.602410    0.389622
 C    0.600328   -1.717164   -0.245573
 C    2.308775   -0.584050   -0.664609
 C   -4.303796    3.421987   -0.115668
 C    3.325396    0.446152   -1.010114
 C    3.979881   -2.459542   -0.498742
 N   -1.656240   -1.012028   -0.051033
 N    1.573998   -2.612251   -0.194825
 N   -3.763852   -0.148256    0.138820
 N   -5.485320    4.107263   -0.191350
 C    3.966368    0.647718    1.424413
 C    5.393693    1.663447   -0.213307
 C   -5.488638    1.076378    0.280340
 C    2.883545    1.448096   -2.046973
 C    3.829571    0.363218   -2.440696
 N   -2.538198   -3.610349    0.436014
 N   -5.106811   -0.180464    0.356150
 N    0.998639   -0.453130   -0.538812
 N    2.662201   -1.871638   -0.469150
 N   -4.721602   -2.896995    0.549691
 O   -3.221492    3.983531   -0.128979
 H    6.648197    2.111316    2.914270
 H    4.584048    0.841656    3.471321
 H    7.144361    2.648485    0.537129
 H   -0.547492   -4.162029    0.279337
 H   -2.272576    1.342226   -0.233852
 H    4.443174   -2.333644   -1.482625
 H    4.625441   -2.004357    0.260290
 H    3.855227   -3.521019   -0.288667
 H   -5.407800    5.089961   -0.409941
 H   -6.336338    3.638915   -0.459084
 H    3.052149    0.117404    1.684293
 H    5.626083    1.943534   -1.237278
 H   -6.527252    1.324182    0.445555
 H    3.261109    2.463353   -1.960377
 H    1.848401    1.359725   -2.369722
 H    3.428664   -0.445951   -3.046016
 H    4.868290    0.611479   -2.639464
 H   -5.393071   -2.146715    0.646523
 H   -4.939277   -3.836817    0.839741
