52 
5t2m_ligand_xtb.xyz
 C   -4.531922    1.691976   -0.999664
 C   -2.727762   -0.031630   -0.587368
 N   -2.191522    2.095056   -0.602095
 C    0.196975    1.864674   -0.189274
 C    0.418511    3.239507   -0.079686
 C    2.622567    2.865408    0.358511
 C    2.436089    1.482571    0.098104
 C    3.521758    0.496561    0.084472
 C    4.801127    0.805527   -0.377107
 C    5.797472   -0.152252   -0.376967
 C    5.536690   -1.440825    0.080751
 C    6.563811   -2.520653    0.103952
 C   -3.458728   -2.039260   -1.953771
 C   -6.078054   -1.385511   -0.440825
 C   -5.868486   -0.768199    2.249630
 C   -4.731806   -0.857162    1.468422
 N   -3.202507    1.229745   -0.731339
 N   -1.431246    0.008623   -0.377225
 C   -1.132672    1.328948   -0.392206
 N    1.608559    3.720832    0.223301
 N    1.219187    1.015914   -0.121047
 C    4.245677   -1.761398    0.497902
 C    3.251367   -0.807580    0.502534
 O    6.281497   -3.698694    0.035334
 N    7.852158   -2.102844    0.210556
 N    3.817613    3.411065    0.731695
 C   -3.558732   -1.244712   -0.673773
 C   -2.801669   -2.550724   -0.714765
 C   -4.823528   -1.168564    0.113949
 C   -7.215949   -1.298876    0.342910
 C   -7.115346   -0.990207    1.688070
 H   -4.972486    1.114772   -1.812780
 H   -5.163625    1.597680   -0.113625
 H   -4.461963    2.740136   -1.284315
 H   -0.380815    3.952395   -0.216239
 H    5.006402    1.786966   -0.778801
 H    6.770064    0.105082   -0.772292
 H   -2.829978   -1.642926   -2.736873
 H   -4.339531   -2.548730   -2.312665
 H   -6.174247   -1.614811   -1.491932
 H   -5.782125   -0.527401    3.298977
 H   -3.756744   -0.688849    1.903271
 H    4.047357   -2.774328    0.814025
 H    2.247744   -1.047888    0.816068
 H    8.573114   -2.802761    0.264513
 H    8.096620   -1.145414    0.383080
 H    4.489003    2.810453    1.180274
 H    3.754735    4.358025    1.071935
 H   -1.728149   -2.488753   -0.638318
 H   -3.247218   -3.396010   -0.212518
 H   -8.185612   -1.470306   -0.101241
 H   -8.004560   -0.922205    2.297045
