58 
5t4h_ligand_ani.xyz
 C    5.016262    1.480243    2.187669
 C    3.654982    1.222759    2.164470
 C    5.802568    1.081520    1.111809
 C    5.220979    0.432504    0.031822
 C    3.850807    0.159665   -0.019333
 C    3.065501    0.569393    1.074863
 C   -0.655716   -1.506942   -0.769583
 C   -0.328575   -0.367082   -1.464451
 C    1.021060   -0.050780   -1.874022
 N    2.447137   -3.044922   -0.216036
 C    1.603176   -3.974138    0.387741
 C    0.292338   -3.606798    0.290749
 C   -1.662304    1.636551   -2.236910
 C   -3.697222    1.202015    0.466718
 C   -3.621018    0.648381    1.902475
 C   -4.768070   -1.470297    0.991012
 C   -4.750388   -0.818762   -0.398428
 C    3.369208   -0.552471   -1.293236
 N    1.966460   -0.962438   -1.325168
 C    1.633575   -2.130722   -0.670639
 N    0.315428   -2.410207   -0.406460
 O    1.390510    0.878386   -2.571264
 N   -1.963488   -1.539869   -0.439203
 C   -2.433720   -0.369512   -0.862857
 N   -1.495945    0.360425   -1.551511
 N   -3.676034    0.156971   -0.576907
 C   -4.716575   -0.412505    2.100485
 N   -2.248655    0.090319    2.217448
 C   -1.264070    2.805646   -1.437665
 C   -0.960870    3.774820   -0.787154
 C   -0.571686    4.950997   -0.007183
 C    1.636051    0.378441    1.179631
 N    0.495228    0.290130    1.340343
 H    5.464985    1.989100    3.035857
 H    3.015428    1.522598    2.987723
 H    6.871975    1.276679    1.113702
 H    5.845389    0.125735   -0.804930
 H    2.003234   -4.858864    0.862375
 H   -0.634295   -4.048034    0.632015
 H   -1.041250    1.596666   -3.133877
 H   -2.704044    1.727253   -2.551350
 H   -4.645592    1.741674    0.360807
 H   -2.886151    1.912637    0.284204
 H   -3.800377    1.476896    2.592617
 H   -3.923415   -2.161780    1.067462
 H   -5.678307   -2.074447    1.092710
 H   -4.646476   -1.572660   -1.182153
 H   -5.695983   -0.283207   -0.566015
 H    3.516450    0.100296   -2.156125
 H    3.975172   -1.451980   -1.442976
 H   -4.602662   -0.886907    3.082380
 H   -5.675864    0.121297    2.126768
 H   -1.492933    0.761643    1.982824
 H   -2.092414   -0.771821    1.651468
 H   -2.191551   -0.145290    3.227319
 H   -1.361326    5.232505    0.696524
 H    0.338884    4.756066    0.567476
 H   -0.381632    5.806419   -0.662141
