44 
5t4v_ligand_ani.xyz
 O    5.362621   -2.346781   -0.129364
 C    4.311718   -1.783449    0.143691
 C    3.384821   -2.248988    1.180378
 C    2.233571   -1.621540    1.478494
 C    1.324220   -2.150832    2.555745
 N    3.908155   -0.620827   -0.535582
 C    4.796038   -0.127376   -1.579375
 C    2.728303    0.054429   -0.252727
 C    2.376818    1.220355   -0.959477
 C    1.205854    1.886687   -0.670592
 O    0.782469    3.020391   -1.292999
 C    1.589596    3.540718   -2.331546
 C    1.860097   -0.417570    0.754555
 C    0.668348    0.278908    1.032442
 C    0.327340    1.407891    0.336692
 N   -0.852912    2.142985    0.549993
 S   -2.212154    1.597170    1.328238
 O   -1.840936    1.046059    2.621745
 O   -3.150203    2.701694    1.233935
 C   -2.748206    0.244256    0.312729
 C   -2.680774    0.317094   -1.077940
 C   -3.151972   -0.747221   -1.833803
 C   -3.683872   -1.876310   -1.199757
 C   -4.173334   -2.978268   -1.990193
 N   -4.566708   -3.862026   -2.627653
 C   -3.743594   -1.939061    0.197498
 C   -3.275889   -0.875076    0.953745
 H    3.689949   -3.149675    1.704836
 H    1.714495   -3.082232    2.976045
 H    1.217614   -1.427073    3.371434
 H    0.321836   -2.346501    2.158386
 H    4.290922   -0.120371   -2.552334
 H    5.147746    0.884981   -1.348627
 H    5.648987   -0.801970   -1.622751
 H    3.033665    1.592283   -1.736588
 H    2.582960    3.823997   -1.961790
 H    1.697240    2.820329   -3.152131
 H    1.073787    4.429016   -2.697516
 H    0.025214   -0.070609    1.829776
 H   -0.952410    3.032589    0.076792
 H   -2.267913    1.189947   -1.577975
 H   -3.110657   -0.709374   -2.917439
 H   -4.155174   -2.818520    0.682077
 H   -3.309636   -0.901263    2.038803
