44 
5t4v_ligand_dft.xyz
 O    5.331597   -1.859623    0.628898
 C    4.438834   -1.048725    0.430024
 C    4.488328    0.325139    0.907091
 C    3.506546    1.225100    0.690540
 C    3.608201    2.632240    1.209398
 N    3.282130   -1.404326   -0.285741
 C    3.204943   -2.773533   -0.771360
 C    2.249401   -0.515895   -0.529996
 C    1.111956   -0.931918   -1.247405
 C    0.070364   -0.048263   -1.473991
 O   -1.076083   -0.360054   -2.119796
 C   -1.337828   -1.719495   -2.410721
 C    2.333009    0.812414   -0.056091
 C    1.273492    1.690076   -0.325690
 C    0.151873    1.281942   -1.013552
 N   -0.951023    2.164338   -1.191290
 S   -1.979869    2.370814    0.124227
 O   -1.182388    2.891530    1.217655
 O   -3.142968    3.062032   -0.399728
 C   -2.467999    0.707053    0.566638
 C   -3.632054    0.177317    0.017964
 C   -3.949121   -1.151942    0.256681
 C   -3.089876   -1.939268    1.032805
 C   -3.397637   -3.326976    1.247747
 N   -3.637516   -4.449573    1.405899
 C   -1.929492   -1.392609    1.590882
 C   -1.619160   -0.058853    1.360757
 H    5.385623    0.579987    1.459946
 H    4.541691    2.776109    1.757801
 H    3.579223    3.357617    0.388589
 H    2.775307    2.866026    1.881919
 H    2.345351   -3.291807   -0.334164
 H    3.127116   -2.792655   -1.863068
 H    4.122148   -3.272254   -0.464676
 H    1.042253   -1.946590   -1.611635
 H   -0.639345   -2.108997   -3.160472
 H   -1.285622   -2.328898   -1.500948
 H   -2.351356   -1.749574   -2.810363
 H    1.301614    2.713065    0.030435
 H   -1.506763    1.963847   -2.018350
 H   -4.279032    0.806301   -0.583887
 H   -4.854036   -1.585673   -0.154765
 H   -1.278428   -2.011072    2.198860
 H   -0.726924    0.384562    1.788522
