40 
5t68_ligand_ani.xyz
 C   24.876794   -5.234226   -8.014282
 C   24.477604   -3.925108   -8.125683
 C   24.262353    2.870452  -10.358869
 C   26.682613   -3.190013   -8.882164
 C   25.037277    3.413233  -11.326498
 C   26.209555   -5.550939   -8.339628
 C   24.787673    1.543181  -10.146053
 C   27.077982   -4.527351   -8.759866
 C   25.363834   -2.901580   -8.571252
 C   25.845806    1.434955  -11.030926
 C   27.009359   -6.738332   -8.350374
 C   26.584132    0.242866  -11.079350
 C   25.194632   -0.547205   -9.438818
 C   28.899482   -1.814777  -12.999845
 C   28.113943   -2.410001  -11.870551
 C   28.571201   -0.981886  -11.796859
 C   26.593460   -8.121823   -7.984197
 N   24.425624    0.536565   -9.322523
 N   28.241168   -6.469701   -8.735543
 N   26.255355   -0.736075  -10.246999
 N   28.271542   -5.138194   -9.000376
 N   24.838235   -1.599927   -8.625111
 N   27.591092    0.052307  -11.973625
 O   26.013765    2.569712  -11.763737
 H   24.185668   -6.003088   -7.680753
 H   23.454222   -3.654154   -7.879306
 H   23.427196    3.344938   -9.859448
 H   27.370380   -2.416008   -9.187399
 H   25.018978    4.380983  -11.806600
 H   29.926935   -2.134432  -13.148828
 H   28.361991   -1.588621  -13.916372
 H   27.042715   -2.540995  -11.999013
 H   28.591796   -3.134260  -11.211608
 H   29.375671   -0.758408  -11.095431
 H   27.440846   -8.803112   -8.095124
 H   26.239657   -8.166036   -6.948100
 H   25.775433   -8.470167   -8.624522
 H   23.984170   -1.429385   -8.114655
 H   27.886742    0.871724  -12.488944
 H   29.159116   -4.706110   -9.202767
