78 
5t6f_ligand_ani.xyz
 C    9.613364    0.805823    1.237956
 C    8.041889   -0.754213    0.407844
 C    7.779766   -2.060593   -0.021952
 C    6.508382   -2.426851   -0.415482
 C    5.464971   -1.493631   -0.392125
 C    3.176536   -1.023481   -0.820798
 C    1.939644   -1.779703   -1.277986
 C    0.746612   -0.874651   -1.570884
 C   -1.972720    1.511620    0.306769
 C   -2.528524    2.771970   -0.362362
 C   -1.471212    3.603699   -1.103876
 C   -2.125681    4.745670   -1.901322
 C   -2.682622    5.853997   -0.999461
 C   -1.601726    6.409128   -0.067321
 C   -0.937306    5.290502    0.739974
 C   -0.390196    4.197244   -0.183932
 C   -3.118113    0.786386    1.047948
 C   -4.062852   -1.334653    1.806496
 C   -4.190980   -2.690405    1.106082
 C   -4.655590   -2.606888   -0.349713
 C   -3.535934   -2.579238   -1.396151
 C   -5.324201   -3.801821   -2.339827
 C   -5.521718   -3.788873   -0.820063
 C   -3.849103   -1.499979    3.307065
 C    5.720509   -0.196169    0.030713
 C    7.008627    0.172897    0.431588
 N   -1.260888    0.671099   -0.675609
 N   -2.988459   -0.549263    1.235679
 N   -3.969910   -3.291387   -2.465249
 O    9.326993   -0.495546    0.776998
 O    4.248763   -1.951543   -0.794182
 O   -2.451430   -2.019363   -1.312047
 O   -4.974131   -2.178305    3.832251
 O   -4.087812    1.414229    1.450670
 O    1.071515    1.012651    0.272397
 O   -0.177767   -1.083928    0.885697
 S    0.151888   -0.051581   -0.099601
 H   10.674257    0.810311    1.492083
 H    9.421719    1.558410    0.461655
 H    9.023987    1.054227    2.130548
 H    8.600591   -2.772316   -0.035131
 H    6.291889   -3.437814   -0.748920
 H    3.411933   -0.205477   -1.518666
 H    3.023398   -0.584905    0.172387
 H    1.661702   -2.522513   -0.522381
 H    2.189023   -2.320477   -2.196370
 H    0.988565   -0.084211   -2.289865
 H   -0.101485   -1.456232   -1.945910
 H   -1.240003    1.799441    1.070400
 H   -3.034605    3.361284    0.406383
 H   -3.309321    2.473717   -1.073734
 H   -0.977629    2.921726   -1.810940
 H   -2.915374    4.342231   -2.548143
 H   -1.367417    5.180835   -2.568423
 H   -3.105087    6.658800   -1.613394
 H   -3.515281    5.457692   -0.401254
 H   -0.834841    6.915546   -0.671639
 H   -2.024387    7.168800    0.601737
 H   -1.668455    4.854291    1.435648
 H   -0.129223    5.695804    1.360511
 H    0.384083    4.643407   -0.826036
 H    0.112776    3.406360    0.384783
 H   -4.987357   -0.760717    1.674459
 H   -3.231978   -3.224175    1.160649
 H   -4.907600   -3.283408    1.684763
 H   -5.224349   -1.678246   -0.502236
 H   -6.050109   -3.146233   -2.842434
 H   -5.405982   -4.802737   -2.773550
 H   -5.136395   -4.722727   -0.391867
 H   -6.570084   -3.687585   -0.526686
 H   -2.921356   -2.069274    3.484684
 H   -3.735006   -0.503011    3.756662
 H    4.930323    0.549908    0.059240
 H    7.177739    1.193940    0.759545
 H   -1.871451   -0.054108   -1.063406
 H   -2.122179   -1.026900    0.998376
 H   -3.454042   -3.298165   -3.332506
 H   -4.786379   -2.405631    4.749496
