78 
5t6f_ligand_dft.xyz
 C    9.729346    0.426523    1.847583
 C    8.290740   -0.555503    0.241038
 C    8.156939   -1.424857   -0.849214
 C    6.923257   -1.627495   -1.435028
 C    5.788202   -0.967841   -0.947139
 C    3.454648   -0.572921   -1.158355
 C    2.321571   -1.046078   -2.057892
 C    1.030659   -0.250163   -1.890574
 C   -1.828486    0.984200    0.612656
 C   -2.476686    2.274518    0.107701
 C   -1.484520    3.273101   -0.503621
 C   -2.226606    4.455691   -1.150557
 C   -2.858172    5.394297   -0.116085
 C   -1.814818    5.896242    0.887240
 C   -1.069459    4.733711    1.551416
 C   -0.446914    3.807954    0.500568
 C   -2.875285    0.094308    1.314493
 C   -3.585678   -2.223806    1.742186
 C   -4.390644   -2.785227    0.563842
 C   -5.203937   -1.719333   -0.185837
 C   -4.576910   -1.207626   -1.483835
 C   -6.913217   -1.262028   -1.842310
 C   -6.597731   -2.173960   -0.647762
 C   -2.842264   -3.319925    2.500030
 C    5.915380   -0.105281    0.134881
 C    7.166479    0.099982    0.728315
 N   -1.164705    0.301924   -0.501416
 N   -2.620072   -1.236567    1.301096
 N   -5.583772   -0.998904   -2.366576
 O    9.550917   -0.426057    0.742999
 O    4.621005   -1.234817   -1.599108
 O   -3.393542   -0.998722   -1.726323
 O   -3.792911   -4.267239    2.942701
 O   -3.857586    0.587702    1.855681
 O    1.025350    0.274413    0.730732
 O    0.070900   -1.910762   -0.086427
 S    0.277398   -0.470298   -0.276755
 H   10.791253    0.383730    2.094152
 H    9.456806    1.463467    1.608471
 H    9.143729    0.093443    2.715103
 H    9.041412   -1.931192   -1.221630
 H    6.811047   -2.299929   -2.279311
 H    3.579206    0.517676   -1.240840
 H    3.250651   -0.806251   -0.106196
 H    2.129044   -2.109054   -1.884715
 H    2.644322   -0.937332   -3.098748
 H    1.182004    0.827039   -2.003832
 H    0.277242   -0.574835   -2.614005
 H   -1.059842    1.221197    1.355191
 H   -3.031523    2.708330    0.942794
 H   -3.224911    2.004366   -0.649447
 H   -0.943919    2.740037   -1.296450
 H   -2.992286    4.084439   -1.843682
 H   -1.510006    5.031034   -1.753738
 H   -3.330739    6.243427   -0.624048
 H   -3.659451    4.871348    0.422802
 H   -1.087511    6.529327    0.358432
 H   -2.290438    6.528571    1.646075
 H   -1.765082    4.167564    2.185339
 H   -0.288314    5.116968    2.218170
 H    0.306959    4.376763   -0.062174
 H    0.094733    2.983955    0.979060
 H   -4.264601   -1.717520    2.433985
 H   -3.706714   -3.291557   -0.130259
 H   -5.067885   -3.549188    0.958439
 H   -5.309977   -0.830634    0.452978
 H   -7.403630   -0.332466   -1.524359
 H   -7.543570   -1.746439   -2.592999
 H   -6.549767   -3.215889   -0.985131
 H   -7.348883   -2.105974    0.142012
 H   -2.095315   -3.780359    1.832184
 H   -2.303007   -2.859410    3.339851
 H    5.057130    0.416973    0.541961
 H    7.232716    0.779111    1.570692
 H   -1.819135   -0.240490   -1.076501
 H   -1.840857   -1.587581    0.756096
 H   -5.404464   -0.533707   -3.243655
 H   -3.323395   -4.966385    3.409815
