78 
5t6g_ligand_dft.xyz
 C   -2.107570    1.160079    1.648206
 C   -3.621103    1.129718    1.441630
 C   -4.055980    2.295029    0.544420
 C   -3.747018    2.066164   -0.944327
 C   -3.498654    3.360622   -1.728119
 C   -2.121715    3.983887   -1.464126
 C   -0.952505    3.189449   -2.053903
 C    0.397494    3.850378   -1.781590
 C    0.969728    0.029165    1.604422
 C    2.274380    0.759340    1.945492
 C    3.329427    0.728807    0.833097
 C    4.638194    1.364714    1.321874
 C    5.724774    1.335795    0.243870
 C    5.249232    2.012453   -1.044396
 C    3.943836    1.387475   -1.541341
 C    2.862540    1.418330   -0.456662
 C    1.280171   -1.419920    1.214527
 C    1.226192   -3.012537   -0.664616
 C    0.100459   -3.206398   -1.686789
 C   -1.287266   -2.850647   -1.135645
 C   -1.733799   -1.404751   -1.367075
 C   -3.670161   -2.736925   -1.500990
 C   -2.458475   -3.653925   -1.719447
 C    2.616527   -3.197550   -1.280979
 N    0.078169    0.097675    2.765276
 N    1.135060   -1.669598   -0.109909
 N   -3.061670   -1.420318   -1.606862
 O   -1.717518   -1.434410    1.647193
 O   -1.036270   -0.388767   -1.343377
 O    2.887912   -2.213398   -2.256310
 O    1.679060   -2.222766    2.044321
 O   -2.120906   -0.328575    3.869827
 S   -1.538478   -0.287275    2.537775
 H   -1.798389    2.029250    2.234223
 H   -1.582316    1.158094    0.688331
 H   -4.114750    1.183259    2.416695
 H   -3.906676    0.174055    0.984892
 H   -5.130441    2.470799    0.669289
 H   -3.561053    3.210420    0.894654
 H   -4.590420    1.523607   -1.394874
 H   -2.867030    1.419849   -1.051743
 H   -4.284656    4.085726   -1.478864
 H   -3.593079    3.161238   -2.803315
 H   -1.966885    4.105742   -0.381992
 H   -2.104701    4.998296   -1.883922
 H   -0.940051    2.166110   -1.660255
 H   -1.100284    3.091299   -3.137798
 H    1.219551    3.270436   -2.214018
 H    0.581551    3.936978   -0.703768
 H    0.438567    4.860242   -2.206187
 H    0.473261    0.540995    0.775661
 H    2.694660    0.289917    2.844011
 H    2.028509    1.796798    2.203664
 H    3.547141   -0.323777    0.595434
 H    4.440526    2.407948    1.610722
 H    4.986297    0.847563    2.224265
 H    5.986601    0.290681    0.026811
 H    6.635658    1.818931    0.615315
 H    5.084623    3.082194   -0.852088
 H    6.021878    1.944564   -1.818516
 H    3.588286    1.904393   -2.440264
 H    4.138534    0.345393   -1.834626
 H    2.609401    2.463801   -0.227118
 H    1.945173    0.956645   -0.842280
 H    1.108982   -3.722546    0.162382
 H    0.104215   -4.257750   -1.997587
 H    0.324902   -2.613549   -2.581652
 H   -1.289046   -2.963029   -0.043096
 H   -4.448965   -2.868917   -2.256737
 H   -4.111972   -2.883638   -0.507255
 H   -2.303555   -3.812300   -2.793226
 H   -2.581198   -4.628649   -1.242327
 H    3.361618   -3.175538   -0.472292
 H    2.688650   -4.166563   -1.784531
 H    0.426438   -0.468193    3.539836
 H    0.544551   -1.016971   -0.627779
 H   -3.587911   -0.559353   -1.631796
 H    2.748095   -1.361535   -1.818656
