78 
5t6g_ligand_ani.xyz
 C   -1.939403    0.174211    1.434407
 C   -3.206569   -0.676305    1.453029
 C   -4.368084    0.012054    0.730137
 C   -4.079948    0.322363   -0.741283
 C   -5.290661    0.855939   -1.516166
 C   -5.854931    2.187975   -1.009031
 C   -4.881838    3.363315   -1.113571
 C   -5.502005    4.685560   -0.670618
 C    1.312959    0.808418    1.253619
 C    2.186204    2.059860    1.376848
 C    3.083414    2.373214    0.174220
 C    3.958402    3.597358    0.478374
 C    4.887968    3.944297   -0.685754
 C    4.094566    4.166206   -1.974972
 C    3.222233    2.950423   -2.291302
 C    2.296040    2.606059   -1.122521
 C    2.159228   -0.462004    1.123529
 C    2.436996   -2.540675   -0.106316
 C    1.643683   -3.299653   -1.177788
 C    0.159629   -3.506955   -0.863723
 C   -0.777578   -2.380251   -1.314256
 C   -1.950815   -4.405519   -1.612030
 C   -0.459260   -4.743064   -1.535214
 C    3.940992   -2.602110   -0.377183
 N    0.472596    0.693567    2.452238
 N    2.020245   -1.143715   -0.050210
 N   -1.917051   -2.959498   -1.762912
 O   -0.166317   -1.745283    1.840120
 O   -0.557425   -1.173304   -1.276111
 O    4.260189   -2.045544   -1.633620
 O    2.916617   -0.809194    2.017928
 O   -1.173843   -0.589991    3.834246
 S   -0.677310   -0.534553    2.470715
 H   -2.116516    1.182983    1.824194
 H   -1.516735    0.235951    0.426553
 H   -3.480054   -0.876761    2.494602
 H   -2.990225   -1.646843    0.986014
 H   -5.257488   -0.628110    0.795717
 H   -4.618405    0.940073    1.263480
 H   -3.715224   -0.591889   -1.233934
 H   -3.252626    1.041654   -0.818978
 H   -6.088357    0.100341   -1.491867
 H   -5.012098    0.970413   -2.573295
 H   -6.184597    2.077389    0.033759
 H   -6.758894    2.428876   -1.585229
 H   -3.988108    3.163252   -0.509124
 H   -4.535532    3.448220   -2.152644
 H   -4.790576    5.512383   -0.766286
 H   -5.820358    4.638747    0.377468
 H   -6.384002    4.930204   -1.274134
 H    0.633434    0.898696    0.398246
 H    2.815186    1.936245    2.268440
 H    1.516271    2.906657    1.569086
 H    3.759575    1.516988    0.012100
 H    3.299367    4.454282    0.688786
 H    4.540072    3.416963    1.391757
 H    5.595503    3.115666   -0.837440
 H    5.489271    4.829349   -0.445051
 H    3.450104    5.049448   -1.854142
 H    4.769718    4.384344   -2.811487
 H    2.637414    3.122181   -3.203065
 H    3.871014    2.084916   -2.493493
 H    1.585788    3.431676   -0.960704
 H    1.697149    1.723204   -1.379765
 H    2.254620   -2.987191    0.882354
 H    2.109499   -4.288708   -1.289897
 H    1.765982   -2.797784   -2.146183
 H    0.023189   -3.573795    0.222913
 H   -2.458954   -4.871776   -2.461273
 H   -2.472862   -4.701290   -0.689435
 H   -0.055156   -4.855796   -2.549127
 H   -0.259011   -5.666398   -0.984850
 H    4.464351   -2.093525    0.443695
 H    4.275036   -3.646022   -0.397999
 H    1.044515    0.557470    3.286919
 H    1.203656   -0.916084   -0.615422
 H   -2.737557   -2.399629   -1.944221
 H    3.837952   -1.174377   -1.637390
