45 
5t7s_ligand_ani.xyz
 C   -1.099923    0.713256    0.231908
 C   -2.179766    1.451557   -0.543752
 C   -3.544606    1.206566    0.084691
 C   -3.829152   -0.292789    0.173978
 C   -2.664535   -0.993422    0.870910
 C   -2.743684   -2.512639    0.830295
 O    0.125381    0.867696   -0.426254
 O   -1.975495    2.852346   -0.552690
 O   -4.562286    1.773742   -0.719545
 O   -3.965648   -0.825180   -1.123279
 O   -1.433364   -0.657821    0.237147
 O   -1.663088   -3.092090    1.527518
 C    4.009841   -0.547732   -0.097636
 C    2.921907   -1.608366   -0.056516
 C    1.624451   -1.041941   -0.612618
 C    1.236806    0.217958    0.181019
 C    2.411212    1.199191    0.175220
 C    2.209271    2.403376    1.081299
 O    4.235090   -0.192493   -1.436450
 O    3.346038   -2.729382   -0.786492
 O    0.669712   -2.086229   -0.526022
 O    3.600627    0.561309    0.669576
 O    3.303844    3.284427    0.999811
 H   -1.025510    1.088283    1.268469
 H   -2.197305    1.041496   -1.562715
 H   -3.561167    1.646316    1.095786
 H   -4.748459   -0.451476    0.763545
 H   -2.616881   -0.666572    1.922515
 H   -3.658435   -2.847498    1.332066
 H   -2.788594   -2.844927   -0.216759
 H   -1.154262    3.006596   -1.036600
 H   -4.244855    2.650547   -0.982865
 H   -4.529129   -0.198521   -1.602537
 H   -0.842373   -2.833184    1.078582
 H    4.930733   -0.930648    0.359988
 H    2.750563   -1.875189    1.000846
 H    1.777353   -0.751582   -1.662783
 H    1.006684   -0.067265    1.220080
 H    2.576898    1.543264   -0.854742
 H    2.051645    2.052086    2.115379
 H    1.321102    2.964191    0.775911
 H    4.948637    0.459309   -1.444208
 H    2.557256   -3.277696   -0.900858
 H   -0.197379   -1.679390   -0.687667
 H    4.086063    2.751182    1.199198
