32 
5t8e_ligand_ani.xyz
 C   -3.877489   -0.240415   -0.130957
 C   -3.534942    0.518716   -1.419796
 C   -2.000086    0.695791   -1.384333
 C   -0.192346   -0.275378   -0.087483
 C    2.546729   -0.867033   -0.143518
 C   -2.476840   -1.502274    1.603798
 C   -2.565297   -0.970652    0.181648
 O   -4.238536    0.635303    0.918797
 N   -1.573312    0.070104   -0.121434
 C    0.253201   -1.580828   -0.318067
 C    1.607088   -1.876709   -0.346577
 C    3.949461   -1.175958   -0.180842
 N    5.071937   -1.457863   -0.219013
 C    2.091174    0.435114    0.091014
Cl    3.265234    1.691779    0.325821
 C    0.737030    0.761717    0.130796
 C    0.297304    2.179567    0.389280
 H   -4.719748   -0.927027   -0.255049
 H   -4.062981    1.476479   -1.432177
 H   -3.837891   -0.048427   -2.306135
 H   -1.695821    1.747851   -1.414833
 H   -1.521503    0.197203   -2.240870
 H   -2.596396   -0.691074    2.328428
 H   -1.513207   -1.987719    1.788681
 H   -3.267892   -2.239586    1.782125
 H   -2.480280   -1.808137   -0.534862
 H   -3.446734    1.161206    1.103285
 H   -0.460562   -2.382102   -0.476075
 H    1.945424   -2.891488   -0.525906
 H   -0.746788    2.206597    0.704504
 H    0.401801    2.802245   -0.508977
 H    0.901587    2.645673    1.171865
