35 
5t8j_ligand_ani.xyz
 C   -1.503338    0.858304   -1.360268
 C   -3.023122    0.590510   -1.413754
 C   -3.353452   -0.105456   -0.084263
 C   -4.551137   -1.029662   -0.163390
 C    0.334380   -0.075919   -0.071598
 C    3.085168   -0.626590   -0.124854
 C   -1.910040   -1.316431    1.660920
 C   -2.021251   -0.809756    0.232570
 N   -1.052518    0.246143   -0.096656
 O   -3.631083    0.858615    0.917765
 C    0.802830   -1.367075   -0.335888
 C    2.161580   -1.642616   -0.365885
 C    4.498083   -0.876519   -0.152360
 N    5.635111   -1.093351   -0.179660
 C    2.593744    0.653148    0.147434
 F    3.482137    1.630052    0.387863
 C    1.244584    0.968117    0.180879
 C    0.811769    2.380939    0.482113
 H   -1.266628    1.927922   -1.376677
 H   -0.984978    0.396818   -2.213174
 H   -3.613533    1.505015   -1.514794
 H   -3.269554   -0.066280   -2.255452
 H   -5.442669   -0.456920   -0.437014
 H   -4.400104   -1.811234   -0.917048
 H   -4.739951   -1.509147    0.802262
 H   -2.079443   -0.503536    2.373343
 H   -2.651667   -2.101116    1.850840
 H   -0.918750   -1.740652    1.851939
 H   -1.923397   -1.657516   -0.471519
 H   -2.818088    1.374216    1.032296
 H    0.102417   -2.175541   -0.516711
 H    2.515410   -2.646056   -0.572999
 H    1.617318    2.934200    0.967444
 H   -0.061251    2.387116    1.139864
 H    0.547356    2.927816   -0.431205
