27 
5t8p_ligand_ani.xyz
 C   -1.287005    2.327538   -0.265075
 C   -2.437182    1.568137   -0.195902
 C    3.455535   -1.220336   -0.090236
 C    2.807966   -2.416590   -0.115344
 C    2.571036   -0.099465   -0.036618
 C   -0.043934    1.707835   -0.144539
 C    0.005657    0.299957   -0.023452
 C    1.249071   -0.495312   -0.031335
 C   -2.300230    0.193084   -0.021794
 C   -3.550582   -0.649115    0.080966
 C    3.100117    1.305003    0.017747
 C    2.137420    2.292068    0.639554
 N   -1.129538   -0.415829    0.046252
 N   -3.329746   -1.966952    0.285510
 O   -4.658219   -0.147414   -0.013480
 O    1.026860    2.537761   -0.213869
 S    1.106952   -2.215398   -0.072493
 H   -1.314644    3.406581   -0.392358
 H   -3.430271    1.998196   -0.266466
 H    4.536582   -1.121650   -0.109022
 H    3.243787   -3.407204   -0.154102
 H    3.351822    1.651513   -0.992677
 H    4.034874    1.308933    0.591917
 H    2.619301    3.263726    0.778918
 H    1.783679    1.930423    1.614236
 H   -4.127200   -2.578257    0.357984
 H   -2.390522   -2.326016    0.344092
