27 
5t8p_ligand_xtb.xyz
 C   -1.243660    2.387693   -0.110971
 C   -2.396169    1.633143   -0.131415
 C    3.348657   -1.340323   -0.201868
 C    2.636719   -2.483764   -0.031570
 C    2.539372   -0.180726   -0.197002
 C    0.005311    1.767935   -0.012094
 C    0.034425    0.358118    0.018559
 C    1.213120   -0.475716   -0.004620
 C   -2.273432    0.248177   -0.033476
 C   -3.488010   -0.628069   -0.013578
 C    3.058623    1.209177   -0.348799
 C    2.300931    2.183619    0.559137
 N   -1.096686   -0.347500    0.029555
 N   -3.188730   -1.936847    0.092764
 O   -4.617888   -0.188772   -0.084264
 O    1.064717    2.613054    0.034194
 S    0.954884   -2.187960    0.144139
 H   -1.269088    3.465493   -0.161632
 H   -3.375724    2.076287   -0.205481
 H    4.415949   -1.311971   -0.332938
 H    3.002525   -3.490610    0.000315
 H    2.951426    1.548027   -1.383296
 H    4.119601    1.230816   -0.094898
 H    2.871373    3.109331    0.671914
 H    2.155082    1.731413    1.548448
 H   -3.921792   -2.624313    0.107845
 H   -2.219545   -2.206534    0.133992
