61 
5t97_ligand_ani.xyz
 C   -2.968996    3.809193    0.988485
 C   -2.831289    4.739791   -0.040670
 C   -1.729800    4.672648   -0.886819
 O   -3.742542    5.728737   -0.259815
 O   -4.160011   -5.878601    0.548659
 O   -5.117346   -5.398021   -1.421062
 C    3.568570    1.152147    0.096438
 C    4.612927    0.247657    0.235217
 C    4.443337   -1.106534   -0.047919
 C    3.180196   -1.520678   -0.474128
 C    2.126766   -0.627942   -0.605125
 C    5.593707   -2.085247    0.083375
 C    5.998960   -2.657280   -1.281222
 C    5.268176   -3.214631    1.067468
 C   -0.586174    0.304121    0.555578
 C   -1.313904   -0.035556   -0.585993
 C   -2.007865   -1.233032   -0.675369
 C   -2.007348   -2.136429    0.393690
 C   -1.261493   -1.805448    1.530193
 C   -0.561425   -0.607641    1.609519
 C    0.793544    1.917289    1.953630
 C   -2.757079   -3.399005    0.373680
 C   -3.605559   -3.828260   -0.566995
 C   -4.291763   -5.125050   -0.390081
 C   -0.759869    3.686669   -0.717580
 C   -0.884105    2.749753    0.314373
 C   -2.001500    2.827957    1.149121
 C    0.419391    3.620925   -1.650929
 C    1.599134    2.973011   -0.952723
 N    1.208258    1.646990   -0.484519
 C    0.155420    1.653405    0.579433
 C    2.295015    0.732322   -0.319618
 H   -3.827707    3.850847    1.656346
 H   -1.639740    5.406237   -1.684310
 H   -4.446588    5.654849    0.396308
 H   -5.521591   -6.257644   -1.217609
 H    3.749625    2.201251    0.316756
 H    5.588772    0.604589    0.559782
 H    2.999522   -2.567415   -0.710758
 H    1.159364   -0.983319   -0.944348
 H    6.451936   -1.530084    0.483318
 H    6.320993   -1.865468   -1.965642
 H    6.822650   -3.371884   -1.171114
 H    5.157637   -3.182290   -1.749149
 H    6.115377   -3.904737    1.153859
 H    4.399647   -3.792980    0.732218
 H    5.042962   -2.821451    2.064391
 H   -1.332236    0.654899   -1.428962
 H   -2.551402   -1.459506   -1.587809
 H   -1.233173   -2.493349    2.372578
 H    0.007032   -0.398405    2.512097
 H    0.034769    1.899063    2.739373
 H    1.267078    2.904313    1.963876
 H    1.558607    1.167073    2.174213
 H   -2.610224   -4.046326    1.238469
 H   -3.835060   -3.261495   -1.464709
 H   -2.132732    2.089600    1.936497
 H    0.163423    3.027575   -2.538116
 H    0.690644    4.622770   -2.003059
 H    1.953870    3.633137   -0.137737
 H    2.426066    2.849391   -1.657566
