93 
5t9z_ligand_ani.xyz
 N   -0.650257   -2.040282    0.587250
 N    0.187907   -1.998220    1.725580
 C   -2.699970   -2.397884    2.097803
 C   -0.500717   -1.658514    2.983922
 C   -2.032533   -2.701184    0.756368
 C   -1.691711   -2.574287    3.223655
 C    0.219019    1.371962   -0.715928
 C    0.247426    2.865746   -0.363593
 C    1.321326    3.665362   -1.110105
 C    0.412961    3.052910    1.153527
 C   -0.848459    2.799774    2.002168
 C   -2.118258    3.529019    1.517154
 C   -2.766893   -2.183177   -0.449632
 C   -4.856394   -1.814983   -1.499854
 C   -5.477770   -0.518859   -1.022163
 C   -4.662305    0.507815   -0.550580
 C   -5.194373    1.691782   -0.036364
 C   -6.581886    1.864145   -0.059313
 C   -7.407434    0.866801   -0.562321
 C   -6.857821   -0.324141   -1.035000
 C   -4.339112    2.728785    0.572037
 C   -3.007207    2.653934    0.674461
 C    1.838470    2.270852    2.882271
 O   -0.494711    0.574642   -0.096621
 O   -2.184588   -1.572339   -1.322010
 O    1.486897    2.202427    1.522098
 O   -4.070743   -2.442471   -0.454954
 N    0.990887    0.960740   -1.757297
 C    0.820620   -0.336761   -2.400562
 C    1.212020   -1.502411   -1.496245
 O    0.650475   -2.593266   -1.617299
 C    1.568956   -0.437204   -3.746594
 C    3.069315   -0.158955   -3.630939
 C    0.925533    0.462506   -4.805395
 N    2.158612   -1.290702   -0.567264
 C    2.424887   -2.267190    0.472880
 C    3.930026   -2.343667    0.775224
 C    4.643857   -1.011296    0.721778
 C    4.455620   -0.048074    1.715906
 C    5.097767    1.181153    1.620250
 C    5.489011   -0.726025   -0.352599
 C    6.137083    0.505421   -0.438570
 C    5.939449    1.464883    0.550553
 O    6.950023    0.719159   -1.512278
 C    1.572817   -2.006214    1.750034
 O    2.149217   -1.843431    2.819912
 H   -0.816930   -1.090688    0.187108
 H   -0.197246   -2.621805   -0.149042
 H   -3.083994   -1.371282    2.106730
 H   -3.554309   -3.065034    2.219446
 H    0.241132   -1.751854    3.773222
 H   -0.818910   -0.603687    2.946212
 H   -1.910733   -3.785895    0.662296
 H   -1.341035   -3.611904    3.267738
 H   -2.144426   -2.336006    4.191051
 H   -0.731902    3.259463   -0.658414
 H    1.155694    3.658601   -2.193043
 H    2.325282    3.285327   -0.896369
 H    1.287777    4.711900   -0.790192
 H    0.717500    4.101699    1.325071
 H   -0.627425    3.128421    3.026079
 H   -1.028424    1.719826    2.046609
 H   -1.833588    4.430969    0.954641
 H   -2.691596    3.895508    2.378703
 H   -5.630060   -2.546731   -1.737101
 H   -4.200148   -1.658022   -2.362120
 H   -3.584928    0.371460   -0.588160
 H   -7.017721    2.785478    0.323549
 H   -8.485451    1.008865   -0.578338
 H   -7.509182   -1.109854   -1.412435
 H   -4.880149    3.572297    1.001775
 H   -2.474385    1.874100    0.122535
 H    2.761251    1.699233    2.997767
 H    2.012078    3.308365    3.208711
 H    1.071467    1.815280    3.524651
 H    1.551018    1.640721   -2.246995
 H   -0.244419   -0.515319   -2.582985
 H    1.439816   -1.482791   -4.059963
 H    3.557977   -0.342742   -4.593766
 H    3.267661    0.886023   -3.360387
 H    3.552420   -0.796919   -2.882108
 H   -0.142884    0.245796   -4.920877
 H    1.026691    1.524818   -4.547209
 H    1.406573    0.313397   -5.778148
 H    2.455030   -0.333149   -0.413538
 H    2.092418   -3.228140    0.062072
 H    4.060568   -2.817646    1.751845
 H    4.384224   -2.998274    0.024730
 H    3.811774   -0.289591    2.557208
 H    4.949579    1.934597    2.392784
 H    5.655056   -1.460991   -1.136091
 H    6.440264    2.429392    0.482767
 H    7.324056    1.606130   -1.442075
