85 
5ta4_ligand_ani.xyz
 N   -1.302464   -2.156858   -0.796506
 N   -0.167048   -2.364122   -0.000153
 C    1.320515   -2.064229   -1.989281
 C    0.072582   -2.098416   -2.862646
 C   -1.127377   -1.519356   -2.111202
 C    1.048301   -2.865565   -0.709847
 C   -0.995502    1.114353    0.969441
 C   -0.009912    2.263533    0.758194
 C    0.063159    3.191805    1.972360
 C   -0.318216    2.966974   -0.578443
 C    0.607204    4.143268   -0.938918
 C    1.951285    3.791489   -1.590997
 C    2.213483   -2.778357    0.242708
 C    3.161663   -1.554381    2.023784
 C    4.119110   -0.755630    1.157590
 C    3.631566    0.323853    0.430118
 C    4.456784    1.081252   -0.404424
 C    5.805688    0.732096   -0.501198
 C    6.313378   -0.330851    0.238283
 C    5.471540   -1.072712    1.066280
 C    3.906178    2.223383   -1.173809
 C    2.865728    2.947190   -0.744600
 C   -0.985618    2.257126   -2.741273
 C    2.662303   -0.782576    3.230100
 O   -0.618779   -0.055430    0.964354
 O    3.246536   -3.383053    0.100564
 O   -0.277337    1.945532   -1.560828
 O    1.980270   -1.906397    1.246806
 N   -2.302096    1.450448    1.187460
 C   -3.341092    0.465326    0.936228
 C   -3.646891    0.471923   -0.573479
 O   -3.686538    1.525382   -1.197059
 C   -4.617163    0.730796    1.762665
 C   -4.344613    0.475537    3.245087
 C   -5.196110    2.130236    1.549283
 N   -3.900427   -0.716581   -1.195022
 C   -3.841193   -2.041906   -0.613701
 C   -2.453426   -2.489515   -0.132107
 O   -2.362552   -3.163033    0.890951
 C   -4.430036   -3.070361   -1.583035
 H   -0.480593   -3.058780    0.714533
 H    0.060992   -1.488492    0.518198
 H    2.173743   -2.515571   -2.501186
 H    1.602437   -1.030471   -1.739265
 H   -0.146187   -3.134258   -3.145871
 H    0.221873   -1.532437   -3.787676
 H   -1.006516   -0.435108   -1.984614
 H   -2.036084   -1.693051   -2.684042
 H    0.923678   -3.916887   -0.986843
 H    0.937129    1.741635    0.636236
 H    0.249096    2.610790    2.881690
 H   -0.864774    3.756947    2.117630
 H    0.883425    3.909256    1.873191
 H   -1.349052    3.361611   -0.527713
 H    0.059713    4.807538   -1.620433
 H    0.787080    4.736236   -0.035180
 H    2.455739    4.736921   -1.834296
 H    1.779849    3.286597   -2.551398
 H    3.645535   -2.485334    2.327482
 H    2.569971    0.559728    0.484151
 H    6.462921    1.307190   -1.151385
 H    7.366467   -0.590476    0.163847
 H    5.860971   -1.917249    1.632113
 H    4.400179    2.432112   -2.125351
 H    2.649512    2.928269    0.329411
 H   -0.927466    1.371050   -3.381962
 H   -2.039465    2.462308   -2.512876
 H   -0.549163    3.110981   -3.282220
 H    2.192685    0.158473    2.919759
 H    3.492295   -0.549414    3.903283
 H    1.923798   -1.374732    3.777252
 H   -2.564651    2.391215    0.924094
 H   -2.938333   -0.496766    1.254789
 H   -5.363956   -0.000393    1.412974
 H   -4.012393   -0.553612    3.423576
 H   -5.249627    0.644438    3.838480
 H   -3.564998    1.151656    3.612534
 H   -5.340249    2.354246    0.488528
 H   -6.163594    2.216164    2.056430
 H   -4.539324    2.899431    1.974026
 H   -4.122919   -0.629255   -2.178433
 H   -4.433360   -2.055198    0.310847
 H   -5.451752   -2.789829   -1.855330
 H   -3.830495   -3.139030   -2.498756
 H   -4.452599   -4.060377   -1.117947
