79 
5ta6_ligand_ani.xyz
 C   -4.710368    2.188214   -0.299506
 C   -3.957930    2.962832    0.821185
 C   -2.945040    3.863826    0.092257
 C   -4.099402    2.684333   -1.632537
 N   -2.441926    0.630303   -0.129948
 C   -1.329167   -0.112236   -0.111463
 C    1.173865    0.295977   -0.094427
 C    3.053254   -1.211676   -0.181928
 C    2.084326    1.381187   -0.059715
 C    2.356659    3.737651    0.042150
 C    7.299763   -1.833400   -0.973673
 C    9.303440   -0.284383   -0.582171
 C   -5.750807   -0.306408    2.658921
 C   -6.564043    0.407895    1.584769
 C   -6.078247    0.130091    0.139899
 N   -4.765366    0.735142   -0.147283
 C   -3.563730    4.077232   -1.293076
 C   -3.615857   -0.005265   -0.150936
 N   -0.182100    0.639684   -0.074447
 C    1.679565   -0.999765   -0.140233
 C    3.944169   -0.142038   -0.171974
 C    3.450365    1.162374   -0.085076
 O    1.502299    2.615397    0.000965
 C    5.428496   -0.297759   -0.229035
 O    6.166934    0.592801    0.200350
 N    5.892530   -1.431283   -0.810072
 C    8.212128   -0.726840   -1.559090
 N    8.708305   -0.068252    0.759077
 C    9.612270    0.657369    1.658291
 C    8.222124   -1.346630    1.370285
 C    7.906397   -2.409539    0.317549
 N   -1.268821   -1.449617   -0.122259
 C   -2.438100   -2.083627   -0.159175
 C   -3.651122   -1.422962   -0.184710
 N   -4.903444   -2.045750   -0.248759
 C   -5.263165   -3.364784   -0.357839
 N   -6.557766   -3.531713   -0.369662
 C   -7.081256   -2.272304   -0.259744
 C   -8.487776   -2.000837   -0.210390
 N   -9.609480   -1.716118   -0.150871
 C   -6.076364   -1.327650   -0.176306
 H   -5.754992    2.519970   -0.282435
 H   -4.675616    3.569525    1.388986
 H   -3.466216    2.282912    1.521550
 H   -2.736679    4.796010    0.628206
 H   -1.999590    3.317056   -0.019208
 H   -3.256867    2.044900   -1.910174
 H   -4.830208    2.677879   -2.450760
 H    3.414000   -2.238032   -0.187697
 H    1.707348    4.612831    0.091097
 H    3.002539    3.713849    0.928716
 H    2.979273    3.796929   -0.859276
 H    7.258242   -2.652475   -1.694919
 H    9.759641    0.652871   -0.915695
 H   10.101969   -1.033314   -0.508609
 H   -5.755862   -1.390870    2.507984
 H   -4.704195    0.022143    2.658389
 H   -6.170064   -0.100926    3.648685
 H   -6.552791    1.492401    1.751929
 H   -7.611782    0.094534    1.627755
 H   -6.801312    0.618055   -0.529083
 H   -2.849316    4.449788   -2.035516
 H   -4.387184    4.802541   -1.235580
 H   -0.354963    1.633694   -0.056435
 H    0.995273   -1.837281   -0.154461
 H    4.167598    1.976522   -0.039355
 H    5.207912   -2.044123   -1.225996
 H    8.689873   -1.086448   -2.477520
 H    7.598473    0.136777   -1.826807
 H    7.856796    0.496571    0.609160
 H   10.492421    0.039749    1.876534
 H    9.944163    1.581964    1.179560
 H    9.110202    0.898457    2.597989
 H    8.994583   -1.722334    2.049674
 H    7.338693   -1.104173    1.965372
 H    7.233001   -3.158454    0.745318
 H    8.828739   -2.940068    0.046511
 H   -2.388194   -3.170670   -0.164789
 H   -4.528974   -4.156398   -0.433873
