38 
5tbm_ligand_ani.xyz
 N    6.877093   -1.369733   -2.099018
 C    6.056039   -0.924637   -1.414060
 C    5.033379   -0.370362   -0.559159
 C    3.810888    0.019421   -1.114386
 C    2.824425    0.520299   -0.277182
 C    3.034411    0.668230    1.090806
 C    4.267556    0.289027    1.601473
 F    4.485248    0.428994    2.917182
 C    5.275614   -0.235613    0.809038
 O    1.623527    0.911905   -0.835504
 C    0.507710    0.186068   -0.484506
 C   -0.693501    0.878279   -0.407590
 C   -0.920653    2.352181   -0.622703
 C   -2.300909    2.539395   -0.007797
 F   -3.021499    3.545403   -0.586748
 F   -2.182038    2.853049    1.315629
 C   -1.881031    0.213961   -0.109016
 C   -3.028981    1.188474   -0.128224
 O   -3.667106    1.091048   -1.389988
 C   -1.864501   -1.168717    0.079205
 S   -3.350860   -2.090162    0.426654
 C   -4.212968   -2.127895   -1.131207
 O   -4.171055   -1.312472    1.351292
 O   -2.956588   -3.458256    0.745238
 C   -0.660686   -1.859615    0.004749
 C    0.527756   -1.189113   -0.274984
 H    3.619532   -0.082241   -2.176405
 H    2.266393    1.071611    1.743200
 H    6.220239   -0.527917    1.253906
 H   -0.164868    2.986644   -0.153121
 H   -0.959793    2.585140   -1.692978
 H   -3.737370    1.038556    0.694380
 H   -4.223066    1.874791   -1.498427
 H   -4.389783   -1.101475   -1.461119
 H   -5.155938   -2.647023   -0.946945
 H   -3.613136   -2.683724   -1.854286
 H   -0.666347   -2.931588    0.174394
 H    1.465330   -1.733171   -0.325538
