67 
5teh_ligand_dft.xyz
 O    0.701716   -3.826613   -0.605147
 C    1.440984   -2.942352   -0.211219
 N    2.788165   -3.042555   -0.124833
 C    3.504998   -4.262198   -0.474015
 C    3.402968   -5.300836    0.644014
 C    4.951453   -3.898297   -0.797133
 C    0.934815   -1.531271    0.144894
 C   -0.404534   -1.588902    0.732474
 N   -1.466364   -1.607072    1.190469
 C    0.941702   -0.644609   -1.141559
 C    1.252860    0.788101   -0.853206
 N    2.563928    1.263943   -0.822930
 C    3.802400    0.559068   -1.090495
 C    4.619719    0.297830    0.165053
 O    3.916102   -0.596961    1.003921
 C    4.537072   -0.787517    2.256954
 C    2.535517    2.581418   -0.454809
 N    3.616389    3.368816   -0.345372
 C    3.293526    4.608274    0.002195
 N    2.078306    5.120082    0.230982
 C    0.391269    1.796266   -0.492765
 C    1.205836    2.951867   -0.235775
 C    1.019290    4.307673    0.112750
 N   -0.201680    4.841894    0.359359
 C   -1.066312    1.660840   -0.300055
 C   -1.900874    1.185947   -1.318384
 C   -3.251731    0.965616   -1.091950
 C   -3.789645    1.237245    0.164378
 C   -2.989777    1.750936    1.177803
 C   -1.635841    1.955861    0.944000
 O   -5.126682    1.063956    0.418551
 C   -5.674654   -0.183203    0.207380
 C   -7.023371   -0.218158   -0.135108
 C   -7.650294   -1.446841   -0.310712
 C   -6.934959   -2.631665   -0.153712
 C   -5.586651   -2.578429    0.190256
 C   -4.944924   -1.357977    0.378954
 H    3.309087   -2.264420    0.272102
 H    3.021627   -4.668506   -1.368672
 H    2.353553   -5.530410    0.845444
 H    3.912711   -6.227358    0.359082
 H    3.864223   -4.921900    1.563689
 H    5.514765   -4.789069   -1.089656
 H    5.447231   -3.463231    0.080401
 H    5.002222   -3.173518   -1.616624
 H    1.608257   -1.074709    0.876987
 H   -0.029895   -0.728661   -1.629329
 H    1.669933   -1.061854   -1.842543
 H    3.578196   -0.386198   -1.589235
 H    4.407210    1.168471   -1.768676
 H    5.591013   -0.135508   -0.120113
 H    4.801878    1.246491    0.685660
 H    5.544116   -1.213174    2.141288
 H    3.913700   -1.483916    2.821270
 H    4.611039    0.160636    2.804953
 H    4.119901    5.307117    0.111886
 H   -0.252697    5.843656    0.458039
 H   -1.038498    4.333792    0.120520
 H   -1.483589    0.993913   -2.302946
 H   -3.894349    0.581464   -1.877439
 H   -3.432127    1.951722    2.147458
 H   -0.999699    2.316834    1.747335
 H   -7.559396    0.717398   -0.256913
 H   -8.703163   -1.475961   -0.576045
 H   -7.425514   -3.589564   -0.295875
 H   -5.020759   -3.495579    0.323369
 H   -3.896321   -1.324887    0.661015
