67 
5teh_ligand_ani.xyz
 O    0.276956   -3.760740   -0.124555
 C    1.178589   -2.946076   -0.021951
 N    2.490377   -3.262139   -0.148413
 C    2.921925   -4.640820   -0.317316
 C    2.985665   -5.362863    1.028246
 C    4.261675   -4.658381   -1.040424
 C    0.921031   -1.449192    0.226861
 C   -0.418139   -1.316106    0.815234
 N   -1.457926   -1.256725    1.319116
 C    1.126615   -0.635529   -1.089714
 C    1.414157    0.820396   -0.859905
 N    2.696144    1.334465   -0.901370
 C    3.947459    0.676737   -1.239901
 C    4.719054    0.200529   -0.019234
 O    4.050234   -0.900848    0.563127
 C    4.509469   -1.185053    1.867485
 C    2.666722    2.633300   -0.469974
 N    3.732954    3.431186   -0.345409
 C    3.415331    4.649688    0.072405
 N    2.203342    5.139817    0.355845
 C    0.547602    1.814821   -0.439242
 C    1.346419    2.981141   -0.187930
 C    1.155007    4.328697    0.212180
 N   -0.077728    4.837122    0.500902
 C   -0.902200    1.682586   -0.240783
 C   -1.719289    1.110156   -1.218100
 C   -3.074910    0.919044   -1.002893
 C   -3.632886    1.298874    0.215224
 C   -2.850737    1.917806    1.183793
 C   -1.497367    2.107464    0.951813
 O   -4.971278    1.139965    0.489836
 C   -5.582868   -0.056431    0.177681
 C   -6.891158    0.026271   -0.289495
 C   -7.589482   -1.138802   -0.577183
 C   -6.989562   -2.381278   -0.385503
 C   -5.685902   -2.449721    0.092687
 C   -4.964864   -1.290724    0.377867
 H    3.184504   -2.538873   -0.000268
 H    2.159396   -5.129504   -0.933033
 H    2.001114   -5.358734    1.505902
 H    3.302323   -6.403466    0.894693
 H    3.698908   -4.869474    1.701137
 H    4.588953   -5.684940   -1.239395
 H    5.034072   -4.175285   -0.427343
 H    4.196536   -4.129608   -1.996927
 H    1.650478   -1.094402    0.963635
 H    0.233110   -0.769062   -1.706521
 H    1.945331   -1.097118   -1.648302
 H    3.743882   -0.159328   -1.912448
 H    4.559117    1.401535   -1.783427
 H    5.737174   -0.093633   -0.318667
 H    4.793195    1.033250    0.693196
 H    5.588340   -1.400814    1.871771
 H    3.974128   -2.067326    2.235641
 H    4.307280   -0.343235    2.546197
 H    4.243085    5.345852    0.197915
 H   -0.103164    5.843865    0.590766
 H   -0.872489    4.421851    0.035120
 H   -1.292745    0.805179   -2.171227
 H   -3.691409    0.451114   -1.763987
 H   -3.312144    2.227691    2.115046
 H   -0.890395    2.575817    1.724365
 H   -7.338742    1.007720   -0.418865
 H   -8.609004   -1.075721   -0.949019
 H   -7.537456   -3.293128   -0.607468
 H   -5.218451   -3.419993    0.241530
 H   -3.936493   -1.342541    0.736452
