33 
5tfx_ligand_ani.xyz
 C   -7.302717    0.263464   -0.086219
 C   -6.842250   -0.867096    0.584622
 C   -6.404222    1.084563   -0.763267
 C   -5.486634   -1.171087    0.583554
 C   -5.044704    0.789324   -0.752132
 C    2.097138    2.109222    0.489488
 C    3.369107    1.545337    0.415745
 C    2.454343   -0.677377   -0.065333
 C   -4.578930   -0.332911   -0.065760
 C    1.179864   -0.112698    0.007057
 C    1.040724    1.247307    0.277089
 C    3.529106    0.182867    0.136666
 C   -3.123518   -0.708435   -0.026620
 C   -0.883303    0.318845    0.032314
 N    5.517130   -0.341637   -1.618852
 N   -0.092570   -0.678707   -0.142808
 N   -2.259332    0.384281   -0.021585
 O   -0.306144    1.528046    0.289129
 O   -2.752174   -1.857455    0.025565
 O    6.069267    0.439482    0.709127
 O    5.118165   -1.890840    0.323071
 S    5.173870   -0.470836    0.012802
 H   -8.363504    0.500197   -0.088341
 H   -7.542556   -1.515622    1.104797
 H   -6.759836    1.964145   -1.294176
 H   -5.111878   -2.060488    1.083613
 H   -4.355009    1.417312   -1.312060
 H    1.949727    3.161048    0.703310
 H    4.250371    2.156614    0.582895
 H    2.608402   -1.734992   -0.252892
 H    6.306044    0.280107   -1.761783
 H    5.676021   -1.261694   -2.015945
 H   -2.653239    1.297383    0.150115
