69 
5tg1_ligand_dft.xyz
 O    0.299326   -1.424597   -2.414773
 C    0.176716   -0.442212   -1.699877
 N    3.188342   -2.148154   -1.396507
 C    3.002036   -3.414566   -0.704196
 C    1.547770   -3.642914   -0.291886
 C    1.014372   -2.625302    0.717858
 C   -0.484530   -2.789706    1.014328
 C   -1.422987   -2.662532   -0.194500
 O   -0.693022   -0.334089   -0.685257
 C   -1.804603   -1.232426   -0.609896
 C   -2.778870   -0.596153    0.360857
 C   -2.351973    0.258314    1.378460
 C   -3.279495    0.787629    2.271789
 C   -4.630947    0.475903    2.170759
 C   -5.040878   -0.376193    1.151761
Cl   -6.738485   -0.775896    0.994316
 C   -4.133368   -0.911001    0.247393
 N    0.906765    0.693988   -1.840943
 C    0.805222    1.919289   -1.045313
 C    1.394589    1.701705    0.369319
 O    0.723350    1.688422    1.392281
 C   -0.571496    2.582086   -0.974080
 C   -1.245088    2.914132   -2.316355
 C   -1.956283    1.713632   -2.954099
 C   -2.255748    4.046847   -2.100891
 N    2.738590    1.535047    0.353573
 C    3.505001    1.092658    1.505958
 C    4.735661    0.311171    1.036340
 C    4.416680   -1.055939    0.430333
 C    3.792493   -1.022876   -0.962004
 O    3.839602   -0.020678   -1.686075
 C    3.890387    2.299934    2.359010
 O    4.569918    1.823670    3.503925
 H    2.667583   -2.029375   -2.259619
 H    3.668736   -3.451011    0.159669
 H    3.322987   -4.216816   -1.378411
 H    0.944035   -3.614931   -1.204112
 H    1.459759   -4.656667    0.120615
 H    1.562329   -2.735609    1.664030
 H    1.215614   -1.607989    0.366891
 H   -0.636838   -3.783820    1.454035
 H   -0.779305   -2.068777    1.786044
 H   -1.004201   -3.167018   -1.066848
 H   -2.368471   -3.168598    0.033791
 H   -2.263896   -1.279069   -1.604371
 H   -1.304235    0.533218    1.459723
 H   -2.941968    1.458135    3.055952
 H   -5.356857    0.886726    2.863829
 H   -4.484106   -1.567845   -0.543609
 H    1.752419    0.561866   -2.381391
 H    1.474782    2.618795   -1.560206
 H   -0.406686    3.515354   -0.421384
 H   -1.246235    1.987621   -0.355932
 H   -0.477584    3.271834   -3.018798
 H   -1.259960    0.933025   -3.268411
 H   -2.515746    2.029034   -3.842062
 H   -2.673760    1.277696   -2.246992
 H   -3.022757    3.741566   -1.378386
 H   -1.771169    4.949725   -1.713004
 H   -2.762043    4.308570   -3.036354
 H    3.188896    1.388401   -0.544755
 H    2.866618    0.447962    2.123794
 H    5.375925    0.160742    1.909449
 H    5.304156    0.916805    0.319937
 H    3.754924   -1.598505    1.113390
 H    5.338270   -1.648536    0.359555
 H    4.524113    2.974044    1.760267
 H    2.969291    2.835101    2.625130
 H    4.742377    2.571702    4.085084
