74 
5tg2_ligand_xtb.xyz
 C    7.191942   -2.030541   -0.286480
 C    6.141307   -1.687377   -1.335016
 C    4.924692   -1.000998   -0.717107
 C    3.873362   -0.665774   -1.772712
 C    2.703318    0.156667   -1.234717
 C    1.901261   -0.508540   -0.111833
 C    0.720558    0.654272    1.603224
 C    1.236114   -1.816964   -0.536852
 C    0.450577   -2.472188    0.598058
 C   -0.059141   -3.850088    0.186094
 C   -0.903545   -4.537863    1.260241
 C   -2.251668   -3.848005    1.509351
 N   -2.967201   -3.660010    0.271602
 O    0.899205    0.449364    0.278366
 O    1.237647   -0.010687    2.468273
 N   -0.128285    1.669417    1.884134
 C   -0.703497    2.710595    1.045402
 C   -1.978433    2.249512    0.313348
 O   -2.999871    2.909965    0.403857
 C    0.256656    3.329800    0.018067
 C    1.265953    4.324827    0.604813
 C    2.260882    3.659810    1.552587
 C    2.015750    5.004805   -0.540642
 N   -1.841031    1.138856   -0.418226
 C   -2.911821    0.492532   -1.180189
 C   -3.982344   -0.078731   -0.244939
 C   -3.465283   -1.276704    0.547271
 C   -3.409806   -2.526220   -0.319177
 O   -3.790391   -2.549711   -1.473122
 C   -3.541061    1.447477   -2.219101
 O   -4.572872    2.245970   -1.727337
 H    8.047536   -2.518212   -0.747378
 H    6.778025   -2.700353    0.464025
 H    7.539124   -1.129525    0.214294
 H    6.582212   -1.031023   -2.088744
 H    5.820614   -2.601224   -1.840643
 H    5.244373   -0.082752   -0.219361
 H    4.495249   -1.658061    0.041055
 H    3.504518   -1.587074   -2.226413
 H    4.348013   -0.084282   -2.566933
 H    3.086044    1.106841   -0.853138
 H    2.016240    0.380590   -2.054681
 H    2.533642   -0.689243    0.764445
 H    0.572530   -1.624920   -1.384087
 H    2.018408   -2.500869   -0.866355
 H    1.088604   -2.560192    1.479635
 H   -0.389952   -1.831503    0.867119
 H    0.798047   -4.488231   -0.040043
 H   -0.646759   -3.754313   -0.729890
 H   -1.091138   -5.567856    0.947439
 H   -0.351288   -4.569363    2.200526
 H   -2.097970   -2.884233    1.990984
 H   -2.849964   -4.469276    2.187892
 H   -3.000021   -4.474007   -0.329597
 H   -0.283902    1.769133    2.875865
 H   -1.032983    3.504234    1.724226
 H    0.788414    2.540763   -0.511834
 H   -0.361194    3.863374   -0.708836
 H    0.714342    5.092296    1.159656
 H    1.771524    3.281065    2.445201
 H    3.016765    4.378062    1.862775
 H    2.763521    2.830159    1.059501
 H    2.715720    5.741181   -0.153550
 H    2.575198    4.270442   -1.116602
 H    1.323277    5.510440   -1.209382
 H   -0.928566    0.706034   -0.430624
 H   -2.443550   -0.327932   -1.729441
 H   -4.830386   -0.389459   -0.854817
 H   -4.314954    0.704983    0.435071
 H   -4.133000   -1.486706    1.386044
 H   -2.477094   -1.050890    0.953776
 H   -2.735856    2.063643   -2.654202
 H   -3.981647    0.843526   -3.016646
 H   -4.240470    2.695852   -0.927353
