15 
5thi_ligand_ani.xyz
 C   -0.846012    0.779855   -0.000039
 O   -1.975204    1.287331   -0.000180
 C   -0.812045   -0.707530    0.000082
 O   -2.050993   -1.212445    0.000068
 C    0.238683   -1.566653    0.000161
 C    1.636017   -1.279840   -0.000209
 C    1.648924    1.233827    0.000190
 C    0.347280    1.603419    0.000047
 C    2.252703   -0.072521   -0.000088
 H   -2.627795   -0.413123   -0.000127
 H   -0.042673   -2.618686    0.000470
 H    2.273078   -2.163552   -0.000596
 H    2.364969    2.055424    0.000479
 H    0.107933    2.666288   -0.000020
 H    3.340766   -0.068786   -0.000175
