81 
5tho_ligand_ani.xyz
 C   -3.256725    0.360049    0.689295
 O   -3.080508    0.071190    1.865407
 C   -4.610941    0.268690    0.004059
 C   -5.729881   -0.079017    0.988447
 C   -7.074916   -0.162244    0.309385
 C   -7.966212    0.910934    0.346003
 C   -9.187364    0.847526   -0.319788
 C   -9.534201   -0.295257   -1.033821
 C   -8.651797   -1.371406   -1.079949
 C   -7.431180   -1.301093   -0.416591
 O   -0.549427    2.077348   -1.678810
 C   -0.220869    1.999699   -0.502713
 C   -0.909272    0.995461    0.434333
 C   -0.137443   -0.338022    0.502192
 C    1.114162   -0.311968    1.375039
 N    1.720209   -1.498057    1.640528
 C    1.159060   -2.792752    1.266938
 C    0.128007   -3.357474    2.241954
 C    2.893168   -1.483246    2.520954
 C    2.584439   -1.255959    3.998341
 O    1.572260    0.747125    1.814550
 N   -2.233999    0.782165   -0.100577
 O    3.108029    3.863343    0.964203
 N    0.754607    2.774719    0.037096
 C    1.638855    3.492502   -0.856557
 C    2.621230    2.598481   -1.632697
 O    3.011648    2.928214   -2.742804
 C    2.410331    4.535238   -0.061599
 C    3.909863    4.733662    1.728193
 C    4.439776   -3.405519   -0.208479
 C    5.301272   -2.426901    0.228336
 C    3.367627   -3.096922   -1.087831
 C    2.022430   -1.434902   -2.260621
 C    3.164935   -1.740293   -1.466673
 C    1.183831   -2.418669   -2.727544
 N    3.038296    1.462456   -1.011717
 C    4.064344    0.647250   -1.637307
 C    4.124936   -0.752979   -1.074836
 C    5.144202   -1.103686   -0.218086
 C    1.427232   -3.765503   -2.410457
 C    2.491239   -4.090575   -1.602187
 H   -4.822056    1.221886   -0.497630
 H   -4.552135   -0.487977   -0.790975
 H   -5.485572   -1.028810    1.476062
 H   -5.750065    0.673099    1.783810
 H   -7.703806    1.806256    0.906826
 H   -9.870039    1.693141   -0.278138
 H  -10.487775   -0.347639   -1.553485
 H   -8.914089   -2.267788   -1.636822
 H   -6.740567   -2.142271   -0.461771
 H   -0.998711    1.397829    1.448204
 H   -0.830992   -1.080971    0.904678
 H    0.128092   -0.672895   -0.508541
 H    0.739838   -2.728144    0.257870
 H    1.996859   -3.491946    1.216906
 H   -0.227778   -4.328747    1.879621
 H    0.568247   -3.513507    3.233245
 H   -0.746020   -2.706923    2.363048
 H    3.406064   -2.441484    2.386572
 H    3.564545   -0.697159    2.161261
 H    1.924849   -2.035426    4.396611
 H    3.516674   -1.275583    4.573900
 H    2.108632   -0.283188    4.150566
 H   -2.370172    1.057429   -1.065481
 H    1.138131    2.483024    0.931397
 H    1.035075    3.986835   -1.619047
 H    1.703256    5.262303    0.366507
 H    3.103632    5.077321   -0.722967
 H    4.683428    5.213515    1.109379
 H    3.306464    5.518004    2.210668
 H    4.394768    4.131880    2.500435
 H    4.567521   -4.433593    0.118954
 H    6.111218   -2.675308    0.909140
 H    1.805304   -0.395147   -2.489665
 H    0.329024   -2.155280   -3.345188
 H    2.844250    1.342459   -0.023828
 H    3.854996    0.633238   -2.713009
 H    5.045009    1.131977   -1.525646
 H    5.852908   -0.347251    0.112701
 H    0.767708   -4.542185   -2.785591
 H    2.672656   -5.128338   -1.332656
