72 
5tjx_ligand_xtb.xyz
 C   -5.374897    2.590407   -2.522752
 C   -4.922417    2.384324   -1.106483
 N   -4.960792    3.474542   -0.346113
 C   -4.601769    3.391462    0.928184
 N   -4.609885    4.565018    1.636237
 C   -4.172132    2.198664    1.518989
 C   -4.110192    1.066773    0.725240
 O   -3.682781   -0.147229    1.126234
 C   -3.343689   -0.388427    2.473957
 C   -2.653633   -1.754439    2.516157
 C   -1.237706   -1.638784    2.051574
 C   -0.183488   -2.135586    2.674758
 C    1.221754   -1.998276    2.179856
 C    1.829057   -3.363884    1.845085
 C    3.260172   -3.264886    1.310668
 O    3.285287   -2.758197   -0.009534
 C    3.242869   -1.426400   -0.258322
 C    3.765955   -0.439479    0.572697
 C    3.721746    0.896439    0.208727
 C    4.283773    1.953478    1.131558
 N    5.308821    2.727328    0.483605
 C    5.176523    3.907813   -0.153613
 C    6.412491    4.226065   -0.665554
 C    7.232291    3.156295   -0.282761
 N    6.550402    2.262718    0.406286
 C    3.172611    1.257803   -1.013091
 C    2.663785    0.283086   -1.852054
 C    2.683076   -1.052555   -1.491101
 C    2.046064   -2.108194   -2.360127
 N    0.707350   -2.393155   -1.898755
 C   -0.362058   -1.580236   -1.959196
 C   -1.420197   -2.258322   -1.374890
 C   -0.852651   -3.489860   -0.984566
 N    0.420649   -3.547115   -1.305418
 C   -2.833897   -1.892493   -1.187189
 O   -3.646069   -2.667381   -0.715627
 N   -3.167531   -0.650140   -1.618205
 C   -4.501617   -0.111028   -1.449320
 C   -4.512727    1.148191   -0.625830
 H   -6.282373    2.023089   -2.721565
 H   -5.582516    3.646229   -2.668529
 H   -4.608578    2.276658   -3.228624
 H   -5.113791    5.318456    1.198296
 H   -4.677962    4.506734    2.638070
 H   -3.902396    2.187007    2.562711
 H   -4.253710   -0.390861    3.090036
 H   -2.662987    0.386279    2.852096
 H   -3.200547   -2.415079    1.837444
 H   -2.696411   -2.164539    3.525388
 H   -1.109325   -1.087565    1.129165
 H   -0.305985   -2.696432    3.592485
 H    1.832220   -1.513103    2.949062
 H    1.226547   -1.364323    1.291215
 H    1.217614   -3.850910    1.083196
 H    1.835978   -3.990470    2.738736
 H    3.685658   -4.268323    1.222270
 H    3.891106   -2.679563    1.987451
 H    4.216104   -0.704961    1.516355
 H    4.727392    1.480854    2.011145
 H    3.487511    2.633334    1.451202
 H    4.243382    4.434683   -0.182479
 H    6.686718    5.096601   -1.225139
 H    8.276217    3.009822   -0.475902
 H    3.145849    2.294626   -1.311371
 H    2.240791    0.567203   -2.805132
 H    2.603575   -3.043107   -2.288220
 H    2.006976   -1.772934   -3.400688
 H   -0.289995   -0.609487   -2.409122
 H   -1.343047   -4.304237   -0.492161
 H   -2.448184   -0.013982   -1.918794
 H   -5.064756   -0.895864   -0.933556
 H   -4.950280    0.064551   -2.430696
