72 
5tjx_ligand_ani.xyz
 C   -5.158015    1.839137   -2.973396
 C   -4.916028    2.028595   -1.498500
 N   -5.128913    3.268154   -1.036503
 C   -4.925201    3.501180    0.263154
 N   -5.212194    4.775468    0.704845
 C   -4.486851    2.518122    1.161415
 C   -4.265202    1.241608    0.659278
 O   -3.837879    0.210203    1.425021
 C   -3.515539    0.456995    2.786816
 C   -2.815095   -0.788746    3.310908
 C   -1.493885   -0.998758    2.629302
 C   -0.351029   -1.379133    3.190739
 C    0.952197   -1.469690    2.448511
 C    1.595571   -2.854860    2.547131
 C    2.989291   -2.947639    1.934380
 O    2.995342   -2.722581    0.533495
 C    3.195024   -1.474205    0.019798
 C    3.699215   -0.388646    0.734915
 C    3.870940    0.847754    0.110486
 C    4.392518    2.020910    0.915871
 N    5.454187    2.758031    0.250079
 C    5.401655    4.007118   -0.274718
 C    6.622789    4.248078   -0.859608
 C    7.353744    3.060610   -0.622945
 N    6.640259    2.168063    0.048553
 C    3.545363    0.985961   -1.233933
 C    3.052239   -0.103642   -1.944999
 C    2.868734   -1.338430   -1.340109
 C    2.289545   -2.512915   -2.089434
 N    0.892687   -2.776428   -1.766394
 C   -0.116637   -1.882660   -1.670134
 C   -1.272342   -2.614708   -1.436323
 C   -0.826458   -3.955806   -1.418668
 N    0.474309   -4.048458   -1.632725
 C   -2.691848   -2.229693   -1.255784
 O   -3.561349   -3.077261   -1.093770
 N   -2.973142   -0.895906   -1.274081
 C   -4.355972   -0.449222   -1.218232
 C   -4.508567    0.961452   -0.696694
 H   -6.014167    1.177040   -3.148525
 H   -5.368736    2.810200   -3.426369
 H   -4.287045    1.391018   -3.464868
 H   -5.280381    5.457889   -0.037031
 H   -4.718234    5.092294    1.526110
 H   -4.360061    2.753956    2.213997
 H   -4.434680    0.658771    3.353051
 H   -2.857199    1.332445    2.866274
 H   -3.475928   -1.644479    3.120266
 H   -2.688048   -0.708482    4.398426
 H   -1.505651   -0.812457    1.554855
 H   -0.311301   -1.632205    4.253103
 H    1.650654   -0.726361    2.861542
 H    0.802520   -1.196830    1.393707
 H    0.950754   -3.604382    2.070575
 H    1.683299   -3.139709    3.604680
 H    3.372265   -3.965336    2.056567
 H    3.685294   -2.269731    2.439337
 H    3.967973   -0.485052    1.783359
 H    4.787773    1.663941    1.872057
 H    3.593745    2.739507    1.125899
 H    4.506795    4.612001   -0.195586
 H    6.939373    5.144819   -1.376910
 H    8.370480    2.814361   -0.912475
 H    3.676365    1.940435   -1.734694
 H    2.805944    0.015016   -2.999383
 H    2.811647   -3.436864   -1.830758
 H    2.384707   -2.361673   -3.172073
 H    0.096790   -0.821465   -1.749282
 H   -1.426844   -4.843927   -1.268347
 H   -2.244184   -0.226952   -1.467881
 H   -4.866574   -1.152250   -0.556318
 H   -4.827551   -0.573503   -2.203060
