49 
5tkb_ligand_dft.xyz
 C   -0.756833    1.811007    1.243156
 C   -0.310018    3.302254   -0.564730
 C   -1.668322    3.541568   -0.712447
 C   -2.590922    2.899387    0.096531
 C   -2.549056   -0.927521   -1.367792
 C    0.175489    2.424299    0.405374
 F   -0.361375    0.987514    2.215612
 C   -2.116182    2.031783    1.065240
 F   -2.975297    1.395551    1.868069
 F   -2.074767    4.387498   -1.657182
 F    0.566701    3.922559   -1.364356
 N    1.561048    2.235538    0.533259
 C    2.160344    0.994797    0.312432
 N    1.355556   -0.037067    0.260967
 N    1.979136   -1.221679    0.054421
 C    1.375908   -2.454817   -0.055078
 C   -0.063096   -2.742270    0.119678
 N   -0.785530   -1.787130    0.737974
 C   -2.214269   -1.890342    0.967195
 C   -3.084137   -1.888768   -0.305006
 O   -3.205890   -3.198167   -0.839596
 C   -4.517822   -1.513526    0.095249
 O   -5.413529   -1.730389   -0.965287
 O   -0.529958   -3.814662   -0.272666
 C    2.415462   -3.324345   -0.337459
 N    3.608669   -2.683572   -0.392342
 C    3.312648   -1.411331   -0.157031
 C    4.174341   -0.269451   -0.097161
 C    3.572394    0.949046    0.154393
 N    5.487778   -0.484035   -0.289411
 C    6.482156    0.559675   -0.254063
 H   -3.653398    3.066627   -0.028068
 H   -3.285400   -0.842255   -2.170747
 H   -2.365155    0.070203   -0.951431
 H   -1.611215   -1.299188   -1.790492
 H    2.101875    3.012171    0.180009
 H   -0.324793   -0.907778    0.937259
 H   -2.481587   -1.034007    1.592631
 H   -2.433198   -2.804167    1.530286
 H   -2.326324   -3.618117   -0.794870
 H   -4.569923   -0.452201    0.361454
 H   -4.801923   -2.103235    0.983224
 H   -5.177422   -2.604502   -1.311272
 H    2.324682   -4.390087   -0.490709
 H    4.150209    1.862493    0.230622
 H    5.757665   -1.441611   -0.462657
 H    7.462342    0.118077   -0.436472
 H    6.503026    1.056455    0.724043
 H    6.293091    1.315715   -1.026658
