71 
5tl9_ligand_dft.xyz
 O    1.407470    0.358764   -1.159148
 C   -4.388604    1.728344    1.051576
 O   -0.140580    1.485499   -0.012019
 C   -3.171540    1.115962    1.089655
 C    0.479739   -2.638565    0.824364
 N   -4.014149   -0.754610   -0.163954
 C   -3.032174   -0.157794    0.460532
 C   -1.679846   -2.014707   -0.343233
 C   -1.196788   -1.007937    1.806955
 C    0.269465   -1.411433    1.726561
 O    2.489932   -3.837777    1.382209
 C    1.976778   -2.940765    0.727517
 N    2.682706   -2.112523   -0.089022
 C    4.124397   -2.127923   -0.165577
 C    4.659166   -1.981050   -1.603838
 C    6.046715   -1.312665   -1.470988
 C    6.243361   -1.015319    0.036442
 C    4.842031   -1.034415    0.669513
 C    4.142330    0.333094    0.727152
 C    4.104331    1.166356   -0.568020
 C    3.346729    2.461387   -0.372343
 C    4.075963    3.632908   -0.155232
 C    3.456119    4.854059    0.081739
 C    2.068004    4.932217    0.120073
 C    1.319106    3.780909   -0.075388
 C    1.939346    2.551595   -0.326425
 C    1.069721    1.361387   -0.550550
 C   -0.226700   -2.439143   -0.523995
 N   -1.756808   -0.782679    0.458266
 C   -5.480346    1.107759    0.389462
 C   -5.233730   -0.146119   -0.222508
 C   -6.766745    1.690964    0.306220
 C   -7.768146    1.037165   -0.363452
 C   -7.520160   -0.214536   -0.970086
 C   -6.283521   -0.816891   -0.916518
 C   -6.012499   -2.147246   -1.561413
 H   -4.528974    2.703389    1.511086
 H   -0.644236    0.630428   -0.111407
 H   -2.317023    1.600585    1.548113
 H    0.044452   -3.510519    1.325195
 H   -2.268424   -2.810396    0.139461
 H   -2.144825   -1.821089   -1.310395
 H   -1.781235   -1.792137    2.315381
 H   -1.293545   -0.092877    2.394295
 H    0.640291   -1.624826    2.734667
 H    0.848397   -0.564709    1.344410
 H    2.204986   -1.339995   -0.538286
 H    4.432481   -3.095886    0.238525
 H    3.977832   -1.360804   -2.196552
 H    4.705512   -2.953757   -2.101707
 H    6.084452   -0.390498   -2.058970
 H    6.845614   -1.956789   -1.849568
 H    6.770579   -0.071156    0.212813
 H    6.851290   -1.805913    0.490379
 H    4.898253   -1.382340    1.707613
 H    4.643654    0.935449    1.496149
 H    3.117703    0.180732    1.088077
 H    5.129867    1.412267   -0.864859
 H    3.655536    0.597243   -1.380910
 H    5.161506    3.579475   -0.175645
 H    4.058342    5.744387    0.237339
 H    1.572617    5.880649    0.301680
 H    0.236207    3.824332   -0.042048
 H   -0.198353   -3.371378   -1.098411
 H    0.275061   -1.672141   -1.118760
 H   -6.943886    2.654744    0.776324
 H   -8.757951    1.477686   -0.433890
 H   -8.330693   -0.714993   -1.493922
 H   -6.916318   -2.546357   -2.030330
 H   -5.648771   -2.871464   -0.825687
 H   -5.232255   -2.060122   -2.324706
