71 
5tl9_ligand_ani.xyz
 O    1.339613    0.440348   -1.317976
 C   -4.416875    1.807525    0.927370
 O   -0.143074    1.623922   -0.146722
 C   -3.201660    1.190354    0.987118
 C    0.453779   -2.520558    0.857977
 N   -4.055763   -0.739411   -0.165931
 C   -3.066103   -0.117144    0.423256
 C   -1.735022   -2.021437   -0.265814
 C   -1.176628   -0.819038    1.779942
 C    0.284612   -1.232649    1.676329
 O    2.479356   -3.607603    1.544285
 C    1.942450   -2.842407    0.756790
 N    2.645707   -2.193024   -0.221068
 C    4.088847   -2.228205   -0.224551
 C    4.708690   -2.060589   -1.620013
 C    6.101419   -1.428442   -1.392814
 C    6.209760   -1.151763    0.126314
 C    4.773670   -1.173116    0.682951
 C    4.109825    0.213199    0.734637
 C    4.091513    1.044713   -0.557819
 C    3.419156    2.390301   -0.370921
 C    4.217100    3.508166   -0.114442
 C    3.668972    4.757747    0.151684
 C    2.287937    4.914324    0.168810
 C    1.473361    3.821156   -0.088710
 C    2.020382    2.563685   -0.376979
 C    1.072582    1.444189   -0.683700
 C   -0.284674   -2.428270   -0.481507
 N   -1.804007   -0.738036    0.448387
 C   -5.523470    1.148064    0.326204
 C   -5.280654   -0.142275   -0.205490
 C   -6.821153    1.707222    0.236970
 C   -7.830535    0.995759   -0.357158
 C   -7.581184   -0.294485   -0.881782
 C   -6.337805   -0.874553   -0.818347
 C   -6.056259   -2.246089   -1.363310
 H   -4.556964    2.802512    1.345066
 H   -0.663251    0.795974   -0.272691
 H   -2.328590    1.689017    1.403810
 H    0.028479   -3.352645    1.433635
 H   -2.286942   -2.795250    0.292630
 H   -2.242201   -1.896716   -1.224808
 H   -1.721845   -1.538800    2.416691
 H   -1.245941    0.156836    2.264692
 H    0.690728   -1.378233    2.684337
 H    0.862944   -0.426273    1.215784
 H    2.206948   -1.430518   -0.725478
 H    4.377755   -3.205361    0.174622
 H    4.081591   -1.405446   -2.238469
 H    4.757995   -3.020214   -2.145621
 H    6.204262   -0.505480   -1.972350
 H    6.906413   -2.092699   -1.721820
 H    6.722903   -0.209098    0.348227
 H    6.791368   -1.947191    0.607133
 H    4.757538   -1.556531    1.712485
 H    4.634419    0.793513    1.505730
 H    3.084656    0.099341    1.106202
 H    5.123727    1.219154   -0.885211
 H    3.581940    0.505439   -1.355803
 H    5.299273    3.396932   -0.121410
 H    4.320081    5.605687    0.348723
 H    1.844591    5.883084    0.382937
 H    0.392449    3.919155   -0.073102
 H   -0.250587   -3.394228   -0.998051
 H    0.181439   -1.689710   -1.141301
 H   -6.998293    2.700011    0.645709
 H   -8.831165    1.415326   -0.429854
 H   -8.398747   -0.841416   -1.348215
 H   -6.942529   -2.679160   -1.838809
 H   -5.723283   -2.918225   -0.563738
 H   -5.242081   -2.211131   -2.096059
