54 
5tnt_ligand_dft.xyz
Cl   -1.215130    4.370152    1.519960
 C   -1.906542    2.820951    1.122312
 C   -2.560249    2.593049   -0.100307
 C   -2.924088    3.329723   -1.285792
 N   -2.713113    4.662217   -1.526124
 N   -3.572465    2.568130   -2.131417
 O   -3.686676    1.304787   -1.546299
 C   -3.072161    1.337396   -0.352335
 C   -1.829757    1.761014    1.995230
 N   -2.316968    0.531222    1.727837
 C   -2.937967    0.278481    0.581005
 N   -3.441603   -0.967794    0.321196
 C   -3.305827   -1.554438   -1.035813
 C   -3.029795   -3.032842   -0.718582
 C   -3.247384   -2.065024    1.285850
 C   -4.488381   -2.966911    1.213682
 C   -4.320777   -3.667152   -0.170145
 C   -2.192149   -2.920465    0.575192
 N   -0.924709   -2.235220    0.452055
 C    0.127779   -2.827200   -0.160088
 O    0.063336   -3.951744   -0.637395
 C    1.438594   -2.076912   -0.156530
 C    2.570015   -2.855573    0.103860
 C    3.841181   -2.310210    0.160525
 C    1.640408   -0.716817   -0.410017
Cl    0.322392    0.350043   -0.847768
 C    2.908095   -0.148867   -0.383437
 C    4.005979   -0.949206   -0.089075
 N    5.290046   -0.362964   -0.061196
 C    6.504915   -0.938481   -0.220070
 N    7.454426   -0.037133   -0.153083
 N    5.450729    0.974984    0.107026
 C    6.760194    1.124407    0.049610
 C    7.422842    2.451440    0.194611
 H   -2.852698    4.944552   -2.486221
 H   -1.898775    5.066096   -1.087993
 H   -1.340562    1.880639    2.957308
 H   -2.465689   -1.096885   -1.567519
 H   -4.214117   -1.410619   -1.626698
 H   -2.555147   -3.573435   -1.537013
 H   -2.998830   -1.674217    2.269922
 H   -5.401069   -2.371570    1.284143
 H   -4.486896   -3.688341    2.036291
 H   -5.171844   -3.496943   -0.835340
 H   -4.200647   -4.748760   -0.056445
 H   -2.044827   -3.900678    1.040303
 H   -0.815804   -1.341819    0.913511
 H    2.423317   -3.916886    0.271386
 H    4.687884   -2.938855    0.413067
 H    3.051348    0.904248   -0.589133
 H    6.642068   -1.995260   -0.398855
 H    8.136939    2.432110    1.022975
 H    7.978057    2.700765   -0.714813
 H    6.676625    3.225906    0.381234
