40 
5toe_ligand_dft.xyz
 C    4.655212   -0.173246   -1.198115
 C    6.102911    0.288363   -1.255505
 N    6.802879   -0.178407    0.000120
 C    6.102795    0.288319    1.255718
 C    4.655135   -0.173354    1.198166
 N    4.027648    0.344312    0.000041
 C    2.586534    0.207365   -0.000045
 C    1.800383    1.355159   -0.000152
 C    0.416123    1.246823   -0.000220
 C    1.978290   -1.050852    0.000002
 C    0.597997   -1.154997   -0.000056
 C   -0.214373   -0.007114   -0.000165
 C   -1.668707   -0.161753   -0.000169
 C   -2.623414    0.867187   -0.000068
 C   -3.853577    0.193822   -0.000053
 C   -5.215230    0.545960    0.000074
 C   -5.619606    1.922233    0.000128
 N   -5.932488    3.040575    0.000181
 C   -6.156302   -0.479597    0.000140
 C   -5.715025   -1.814143    0.000080
 N   -4.445666   -2.201831   -0.000038
 C   -3.526558   -1.219276   -0.000097
 N   -2.191493   -1.415246   -0.000088
 H    4.619518   -1.278966   -1.269173
 H    4.131452    0.220006   -2.072284
 H    6.165643    1.378108   -1.257522
 H    6.648882   -0.124682   -2.106361
 H    7.778255    0.129313    0.000163
 H    6.816729   -1.204163    0.000113
 H    6.165481    1.378068    1.257750
 H    6.648725   -0.124724    2.106598
 H    4.131262    0.219712    2.072352
 H    4.619523   -1.279100    1.269098
 H    2.283199    2.328826   -0.000185
 H   -0.188589    2.147983   -0.000286
 H    2.584537   -1.956384    0.000109
 H    0.095721   -2.116705   -0.000019
 H   -2.465541    1.938063   -0.000253
 H   -7.217915   -0.255684    0.000253
 H   -6.458579   -2.610889    0.000163
