19 
5tp0_ligand_dft.xyz
 C   -1.780318    0.217219   -0.115569
 C   -1.022582    1.369509    0.095673
 C    0.358964    1.285532    0.153818
 C    1.002332    0.057847   -0.034865
 C    0.237709   -1.080627   -0.299295
 C   -1.150479   -1.007274   -0.335867
 C    2.494683    0.008245    0.017199
 N    3.027824   -1.245758    0.286537
 N    3.152096    1.076857   -0.228297
 N   -3.203047    0.370623   -0.151717
 N   -3.919324   -0.517858    0.331214
 H   -1.535036    2.317042    0.226468
 H    0.966472    2.166284    0.329572
 H    0.726973   -2.024023   -0.521850
 H   -1.733450   -1.889140   -0.587544
 H    4.019630   -1.265337    0.480757
 H    2.494916   -1.834787    0.911327
 H    4.158626    0.924782   -0.139146
 H   -3.342835   -1.284576    0.749702
