52 
5tpx_ligand_dft.xyz
 C    1.953263   -0.213370    2.563038
 N    1.616203    0.573411    1.347198
 C    2.237588    1.925637    1.405545
 C    1.887530   -0.112693    0.011853
 C    3.364528   -0.236135   -0.283959
 C    4.171798   -1.209272    0.315646
 C    5.529406   -1.276924    0.021012
 C    6.094748   -0.380931   -0.882663
 C    5.298333    0.581875   -1.494831
 C    3.941883    0.652232   -1.195500
 C    1.119064   -1.447838   -0.118295
 C    0.953764   -1.781920   -1.602388
 N   -0.156246   -1.478636    0.618211
 C   -1.233810   -0.664322    0.287462
 C   -2.570751   -1.227867    0.106108
 C   -2.840071   -2.607646    0.138845
 C   -4.132129   -3.069943   -0.021898
 C   -5.186415   -2.169838   -0.229218
 C   -4.945078   -0.810692   -0.289729
 C   -3.639611   -0.335709   -0.126678
 C   -3.316259    1.060920   -0.224574
 N   -2.002755    1.429812   -0.077929
 N   -0.960870    0.610776    0.221130
 N   -4.049409    2.118715   -0.469616
 N   -3.209310    3.196257   -0.481764
 C   -1.984659    2.786263   -0.247299
 C   -0.762798    3.626095   -0.174955
 H    1.601768    0.338506    3.435820
 H    3.034773   -0.337865    2.617371
 H    1.446755   -1.175359    2.516469
 H    0.587771    0.719830    1.300244
 H    1.943356    2.489484    0.519958
 H    1.879042    2.432239    2.302525
 H    3.322269    1.822220    1.436680
 H    1.444876    0.589132   -0.700061
 H    3.752258   -1.931243    1.011131
 H    6.144823   -2.036015    0.492555
 H    7.153122   -0.440230   -1.114203
 H    5.729488    1.275515   -2.209077
 H    3.323777    1.401283   -1.684605
 H    1.717370   -2.233301    0.352020
 H    0.493868   -2.766989   -1.717995
 H    1.921899   -1.795235   -2.110541
 H    0.312379   -1.043298   -2.094471
 H   -0.432005   -2.427753    0.822277
 H   -2.047336   -3.337645    0.271797
 H   -4.328645   -4.136256    0.006339
 H   -6.196501   -2.545353   -0.355202
 H   -5.742311   -0.097196   -0.467941
 H   -0.311552    3.591457    0.823403
 H   -1.040901    4.658748   -0.390142
 H   -0.015583    3.305428   -0.910094
