52 
5tpx_ligand_xtb.xyz
 C    1.620368    0.252995    2.362075
 N    1.470744    0.792028    1.006227
 C    2.149342    2.089330    0.903441
 C    1.880645   -0.123798   -0.109578
 C    3.383820   -0.246923   -0.240209
 C    4.153800   -1.000621    0.640188
 C    5.527485   -1.073884    0.483740
 C    6.150518   -0.402383   -0.554071
 C    5.392290    0.343390   -1.440630
 C    4.020405    0.421324   -1.282188
 C    1.216876   -1.509139   -0.025123
 C    1.265496   -2.147929   -1.417658
 N   -0.149588   -1.534751    0.498126
 C   -1.194462   -0.708907    0.193526
 C   -2.534258   -1.262645    0.088071
 C   -2.819657   -2.634991    0.135327
 C   -4.115742   -3.085592    0.028278
 C   -5.172996   -2.190232   -0.130102
 C   -4.926570   -0.838614   -0.194641
 C   -3.615876   -0.370039   -0.091606
 C   -3.310354    1.017351   -0.189423
 N   -1.987297    1.411256   -0.098315
 N   -0.946164    0.578092    0.114828
 N   -4.060898    2.069617   -0.386025
 N   -3.266366    3.135306   -0.429076
 C   -2.024330    2.769361   -0.261587
 C   -0.850278    3.667172   -0.255987
 H    1.192273    0.955938    3.074702
 H    2.673464    0.115615    2.602151
 H    1.092756   -0.692293    2.453171
 H    0.397801    0.900092    0.763866
 H    2.014692    2.508820   -0.090381
 H    1.736306    2.777985    1.637271
 H    3.216471    1.974043    1.091652
 H    1.503344    0.367060   -1.014890
 H    3.697057   -1.549755    1.449627
 H    6.110329   -1.662965    1.174349
 H    7.220117   -0.465611   -0.674684
 H    5.866800    0.863499   -2.257592
 H    3.438036    0.999522   -1.984976
 H    1.792350   -2.140208    0.660554
 H    0.907855   -3.173622   -1.379273
 H    2.285600   -2.157083   -1.791132
 H    0.641653   -1.591533   -2.113998
 H   -0.448204   -2.494749    0.608570
 H   -2.033907   -3.369106    0.245875
 H   -4.313820   -4.145491    0.064405
 H   -6.181982   -2.562628   -0.209991
 H   -5.714681   -0.115664   -0.328534
 H   -0.401083    3.712860    0.735198
 H   -1.188921    4.661408   -0.530279
 H   -0.106459    3.331693   -0.977085
