43 
5tq3_ligand_dft.xyz
 C    5.644929   -1.025975    0.258067
 C    4.244728    0.757316   -1.317019
 C    5.617699    0.633267   -1.490509
 C    2.079909    0.183748   -0.250368
 C    0.197472    1.565455    0.222818
 C   -4.691846   -0.905419   -0.340900
 C   -5.507017   -2.045632   -0.652905
 C    3.552484   -0.003744   -0.374172
 C   -3.220824    0.563004    0.045069
 C    3.367792   -0.800984    2.791011
 C    3.610749   -1.680669    1.558108
 C    4.269573   -0.908101    0.435246
 C    6.321619   -0.269677   -0.697839
 C    1.195388   -0.864471   -0.550282
 C   -0.188973   -0.719514   -0.459377
 C   -0.677603    0.517872   -0.063265
 C    1.568158    1.433150    0.139194
 N   -0.548435    2.727004    0.601232
 N   -1.783804    2.472964    0.568198
 C   -1.981193    1.106062    0.162098
 N   -3.392397   -0.771247   -0.350719
 C   -6.850157   -1.891364   -0.554108
 C   -7.471924   -0.637444   -0.151906
 C   -6.751554    0.468675    0.153473
 C   -5.320604    0.366143    0.066916
 N   -4.403906    1.264967    0.302410
 O    7.663534   -0.455633   -0.803331
 H    6.221076   -1.708961    0.875526
 H    3.691526    1.454145   -1.940943
 H    6.131299    1.231589   -2.239565
 H   -5.047513   -2.980865   -0.952756
 H    4.308509   -0.373854    3.153364
 H    2.690425    0.025967    2.554504
 H    2.919567   -1.384754    3.601341
 H    2.657904   -2.107295    1.231322
 H    4.252502   -2.524564    1.833531
 H    1.609953   -1.813119   -0.878488
 H   -0.866108   -1.532783   -0.694624
 H    2.231397    2.258506    0.377148
 H   -7.505479   -2.727155   -0.780578
 H   -8.556058   -0.607194   -0.100542
 H   -7.211811    1.403454    0.453211
 H    8.011521    0.125948   -1.489745
