71 
5tq8_ligand_ani.xyz
 C   -7.203395    3.056729    0.072822
 C   -8.305896    2.515393   -0.573228
 C   -8.257450    1.174287   -0.941205
 C   -6.020444    0.959132   -0.102295
 C   -2.463481   -0.379904   -0.440840
 C   -1.807157   -2.767542    0.496188
 C   -4.964377   -1.145062    0.652270
 C   -0.428304   -2.993583    0.166074
 C    2.734447   -2.174654   -1.310441
 C    3.640220   -4.431947   -0.980854
 C    1.459517   -3.935547    0.004132
 C   -4.781194    2.201721    2.520655
 C   -4.959362    2.901563    1.171918
 C   -6.064846    2.292615    0.334710
 O   -9.406812    3.267121   -0.822948
 F   -9.362944    0.670492   -1.546791
 C   -7.152886    0.392236   -0.702094
 C   -4.822879    0.083295    0.037183
 C   -3.561317    0.451077   -0.511014
 C   -2.613317   -1.628499    0.203097
 N   -2.583405   -3.697023    1.165610
 N   -3.790118   -3.270803    1.324420
 C   -3.860422   -1.987057    0.744499
 N    0.313098   -2.087413   -0.520681
 C    1.507947   -2.685442   -0.622697
 N    3.885896   -2.987340   -0.917889
 C    2.614272   -4.879437    0.069000
 N    0.226075   -4.122531    0.501978
 C    4.811485   -2.570487    0.024863
 O    5.335471   -3.347942    0.799976
 C    5.161584   -1.104213   -0.002090
 C    5.557734   -0.461240   -1.168383
 N    5.939423    0.812788   -1.197741
 C    5.931709    1.468813   -0.028050
 C    5.493806    0.815265    1.155622
 N    5.133175   -0.452498    1.169375
 N    6.347859    2.768628   -0.013349
 C    6.617894    3.490480   -1.251183
 C    6.093876    4.916711   -1.132879
 C    6.786750    5.680577    0.012293
 C    7.392300    4.715978    1.040313
 C    6.519528    3.485363    1.246280
 H   -7.247484    4.094380    0.392936
 H   -1.512576   -0.084631   -0.865036
 H   -5.900827   -1.474642    1.083789
 H    2.903764   -1.123674   -1.055581
 H    2.616730   -2.228039   -2.404865
 H    4.592513   -4.946642   -0.847109
 H    3.264354   -4.653011   -1.986952
 H   -5.702435    2.251188    3.110762
 H   -4.525880    1.146271    2.379679
 H   -3.978367    2.673586    3.096724
 H   -4.009501    2.871421    0.628156
 H   -5.186058    3.961828    1.325042
 H  -10.054698    2.698655   -1.263215
 H   -7.139737   -0.655325   -0.993633
 H   -3.476452    1.407941   -1.018543
 H    3.072843   -4.860179    1.066106
 H    2.290601   -5.909624   -0.120539
 H    5.562556   -0.999273   -2.112353
 H    5.437300    1.345836    2.102611
 H    6.139495    2.956852   -2.073235
 H    7.698837    3.489297   -1.454418
 H    5.013811    4.862623   -0.952391
 H    6.225526    5.440154   -2.086397
 H    6.058551    6.340388    0.499014
 H    7.582690    6.323038   -0.381014
 H    7.543399    5.218028    2.001912
 H    8.382435    4.382672    0.706581
 H    7.001990    2.822286    1.973826
 H    5.541776    3.774358    1.662981
