73 
5tqe_ligand_xtb.xyz
 C    3.600405   -1.933088   -1.415243
 C    2.224629   -2.116271    1.002851
 C    1.539018   -2.362942   -0.206720
 C    2.242015   -2.276770   -1.391607
 C    5.647692   -1.279755   -0.274112
 C    3.546244   -1.770862    1.004400
 C   -2.258553    2.003636    0.449566
 C   -1.012268    2.040140    1.067730
 C   -0.026451    2.866333    0.545729
 C    5.654983   -1.471260   -2.553439
 C    4.340152   -1.829274   -2.617687
 C   -2.518298    2.757690   -0.687342
 C    2.476060    1.734063   -0.119670
 C   -3.897428   -4.290972    0.732716
 C   -2.602070   -3.905737    1.025239
 C   -2.096893   -2.716288    0.513666
 C   -2.897496   -1.928382   -0.303732
 C   -4.202839   -2.303899   -0.594066
 C   -4.695761   -3.489938   -0.064142
 C   -0.681630   -2.300021    0.831890
 N    0.209382   -2.751730   -0.219300
 C   -0.565363   -0.769541    0.975024
 N    6.301747   -1.190552   -1.413512
 C    4.271237   -1.660552   -0.194659
 N    6.380295   -1.030935    0.852967
 O    0.008880   -0.117482    0.118220
 C   -0.300008    3.665489   -0.552072
 C   -1.533046    3.625458   -1.165158
 N   -3.727675    2.716531   -1.379051
 C   -0.810390    1.208176    2.306182
 N   -1.109181   -0.202033    2.066244
 C   -1.725762   -0.941742    3.139956
 S    1.709833    2.874497    1.038335
 O    1.879053    2.362021    2.378988
 O    2.224788    4.196787    0.791154
 C    3.938941    1.936931   -0.340309
 C    2.960518    2.328580   -1.398770
 C   -5.093070   -1.424029   -1.425540
 C   -4.738311    1.797859   -1.425100
 O   -4.629896    0.805113   -0.526686
 O   -5.641119    1.909276   -2.217474
 C   -5.612375   -0.224275   -0.620376
 H    1.702859   -2.188271    1.944554
 H    1.737742   -2.465785   -2.329411
 H    4.033425   -1.586148    1.950418
 H   -3.021492    1.357495    0.850595
 H    6.261652   -1.379664   -3.445160
 H    3.860349   -2.033685   -3.562327
 H    2.027808    0.755803   -0.084470
 H   -4.287044   -5.216009    1.130265
 H   -1.977996   -4.528067    1.649431
 H   -2.504004   -1.006581   -0.708099
 H   -5.710137   -3.790584   -0.282114
 H   -0.367069   -2.775938    1.768427
 H   -0.204695   -2.675381   -1.139740
 H    7.288846   -0.632549    0.680265
 H    5.904796   -0.722228    1.682548
 H    0.475498    4.323136   -0.909216
 H   -1.733583    4.246270   -2.025801
 H   -3.829260    3.420648   -2.100190
 H   -1.491777    1.566836    3.081604
 H    0.218296    1.321911    2.659517
 H   -2.304481   -1.776074    2.747663
 H   -2.404883   -0.283513    3.680310
 H   -0.980951   -1.319478    3.848345
 H    4.401889    2.731942    0.225047
 H    4.562323    1.070219   -0.497262
 H    2.788540    3.383866   -1.544441
 H    2.892048    1.729307   -2.293888
 H   -5.952622   -1.996109   -1.776125
 H   -4.555629   -1.043751   -2.296451
 H   -5.842816   -0.517654    0.406484
 H   -6.503883    0.190862   -1.100429
