87 
5trg_ligand_ani.xyz
 C    0.202463    3.588776   -0.618507
 O   -0.183548    3.901906    0.501083
 C    0.877226    4.581182   -1.547933
 C    2.387596    4.661968   -1.215728
 C    3.051896    3.310459   -1.338380
 C    3.279853    2.751309   -2.599305
 C    3.735514    1.444124   -2.727727
 C    3.978608    0.675965   -1.590354
 C    3.770024    1.222961   -0.327207
 C    3.317008    2.534835   -0.204758
 O    0.738890   -0.108911   -1.998290
 C    0.562439   -0.039478   -0.782459
 C   -0.008592    1.223335   -0.124589
 C   -1.482441    1.053561    0.303849
 C   -1.626159    0.565532    1.739791
 N   -2.711533    0.981596    2.454352
 C   -2.788002    0.570437    3.860114
 C   -1.870320    1.354932    4.794455
 C   -3.680393    1.952456    1.956113
 C   -3.274974    3.410729    2.152745
 O   -0.788098   -0.187385    2.237428
 N    0.126494    2.307139   -1.074085
 N    0.833197   -1.060119    0.058195
 C    1.170407   -2.380703   -0.456931
 C   -0.124854   -3.102297   -0.879808
 O   -0.588381   -4.033061   -0.230162
 C    1.943437   -3.199966    0.573722
 C    3.294749   -2.615335    0.909849
 C    3.550352   -2.017784    2.145585
 C    4.331198   -2.662168   -0.027046
 C    4.806679   -1.507993    2.459348
 C    5.592507   -2.156755    0.263093
 C    5.811864   -1.590399    1.511280
 F    7.028927   -1.096460    1.798113
 C   -4.976669    0.149231   -2.169155
 C   -4.300332   -0.087632   -3.340611
 C   -4.716062   -0.629797   -1.012461
 C   -3.399689   -2.330221    0.146359
 C   -3.716263   -1.641947   -1.062514
 C   -4.077402   -2.066859    1.312494
 N   -0.709176   -2.604035   -1.996940
 C   -2.035025   -3.016179   -2.440876
 C   -3.064945   -1.911839   -2.311741
 C   -3.352279   -1.126030   -3.404910
 C   -5.115033   -1.117687    1.340058
 C   -5.426031   -0.418947    0.200194
 H    0.406157    5.557660   -1.403543
 H    0.734489    4.279812   -2.592527
 H    2.864196    5.387381   -1.885435
 H    2.499839    5.040645   -0.193500
 H    3.082473    3.343283   -3.492938
 H    3.893854    1.024570   -3.718669
 H    4.322542   -0.352925   -1.683139
 H    3.941988    0.611712    0.559320
 H    3.132079    2.966127    0.779019
 H    0.578181    1.458228    0.773347
 H   -2.031728    0.364854   -0.354472
 H   -1.944247    2.034788    0.191538
 H   -2.530905   -0.493082    3.904696
 H   -3.833856    0.677387    4.169900
 H   -2.096717    2.426956    4.777085
 H   -1.994866    0.999693    5.823683
 H   -0.823304    1.215063    4.509627
 H   -3.870023    1.748803    0.895635
 H   -4.628353    1.765238    2.475174
 H   -4.035365    4.073451    1.722875
 H   -2.315114    3.634637    1.672462
 H   -3.191839    3.658964    3.217030
 H    0.590025    2.053467   -1.939380
 H    0.448525   -0.985953    0.999221
 H    1.784083   -2.209726   -1.349660
 H    1.328090   -3.305464    1.474059
 H    2.062009   -4.212685    0.173072
 H    2.754630   -1.952405    2.884885
 H    4.152538   -3.108739   -1.003964
 H    5.015003   -1.046875    3.420428
 H    6.399485   -2.178850   -0.463382
 H   -5.723043    0.937167   -2.104614
 H   -4.503098    0.513300   -4.223227
 H   -2.607887   -3.075836    0.143006
 H   -3.809331   -2.604006    2.220189
 H   -0.293821   -1.776657   -2.415617
 H   -2.313152   -3.902385   -1.862468
 H   -1.967802   -3.324654   -3.491822
 H   -2.840406   -1.317663   -4.346754
 H   -5.660420   -0.934150    2.263422
 H   -6.209170    0.333876    0.205004
