87 
5trg_ligand_xtb.xyz
 C    0.392571    3.408842   -1.089623
 O    0.257589    3.925654    0.003486
 C    0.850812    4.159034   -2.324783
 C    2.392103    4.109558   -2.378627
 C    2.887511    2.694475   -2.260151
 C    2.888587    1.844207   -3.358888
 C    3.272807    0.521223   -3.227674
 C    3.654987    0.029057   -1.992316
 C    3.661039    0.868003   -0.891550
 C    3.284472    2.191969   -1.026968
 O    0.432099   -0.364278   -2.084320
 C    0.365602   -0.233214   -0.865493
 C    0.075085    1.131389   -0.237096
 C   -1.310055    1.191772    0.441436
 C   -1.242273    0.783017    1.901557
 N   -2.031670    1.415829    2.782338
 C   -1.970817    0.969513    4.166602
 C   -0.867029    1.656110    4.964293
 C   -2.881229    2.549019    2.467352
 C   -2.131549    3.881395    2.433894
 O   -0.496091   -0.125307    2.266522
 N    0.170392    2.096350   -1.303524
 N    0.531399   -1.215848    0.010082
 C    0.872389   -2.575387   -0.358719
 C   -0.417491   -3.329878   -0.739337
 O   -0.854101   -4.264106   -0.098239
 C    1.570210   -3.263785    0.816013
 C    2.845367   -2.562123    1.180136
 C    2.854765   -1.568497    2.152530
 C    4.031995   -2.880635    0.530065
 C    4.027102   -0.911295    2.481759
 C    5.213438   -2.233676    0.843992
 C    5.192539   -1.256839    1.822300
 F    6.342203   -0.622396    2.142022
 C   -4.846183    0.354779   -1.960493
 C   -4.435538   -0.125852   -3.170162
 C   -4.479216   -0.302028   -0.767529
 C   -3.321278   -2.102232    0.388179
 C   -3.671351   -1.472377   -0.827441
 C   -3.735939   -1.596922    1.589549
 N   -1.008586   -2.813654   -1.827777
 C   -2.358997   -3.155587   -2.231287
 C   -3.259699   -1.952482   -2.101312
 C   -3.639494   -1.277537   -3.233727
 C   -4.534014   -0.445729    1.644588
 C   -4.899838    0.184169    0.488955
 H    0.523161    5.196862   -2.260866
 H    0.429852    3.698765   -3.219111
 H    2.725551    4.553000   -3.319179
 H    2.787442    4.705885   -1.554728
 H    2.583334    2.221685   -4.325213
 H    3.264474   -0.128179   -4.090332
 H    3.947453   -1.004711   -1.881795
 H    3.956423    0.487268    0.074546
 H    3.286127    2.843350   -0.164163
 H    0.842350    1.348439    0.518931
 H   -2.010583    0.524967   -0.068583
 H   -1.662969    2.212548    0.333270
 H   -1.779518   -0.106394    4.148911
 H   -2.943396    1.147881    4.630235
 H   -1.053268    2.722358    5.058515
 H   -0.813583    1.224253    5.960215
 H    0.088463    1.508819    4.468726
 H   -3.381098    2.369432    1.512560
 H   -3.657809    2.594376    3.235277
 H   -2.816643    4.671032    2.135609
 H   -1.301400    3.862321    1.731949
 H   -1.737707    4.125711    3.416096
 H    0.354989    1.671079   -2.206458
 H    0.298705   -1.013711    0.989907
 H    1.528383   -2.527192   -1.237061
 H    0.880237   -3.269478    1.661028
 H    1.765848   -4.298920    0.533641
 H    1.939904   -1.306852    2.662672
 H    4.034518   -3.651811   -0.226667
 H    4.047411   -0.141892    3.237673
 H    6.139908   -2.476284    0.347939
 H   -5.457805    1.243379   -1.896514
 H   -4.716240    0.375169   -4.084546
 H   -2.724000   -2.998373    0.378800
 H   -3.455472   -2.093311    2.506224
 H   -0.579564   -2.011379   -2.279085
 H   -2.687356   -3.982542   -1.597246
 H   -2.347295   -3.494002   -3.272313
 H   -3.322399   -1.639837   -4.201199
 H   -4.864545   -0.070204    2.601871
 H   -5.526754    1.064884    0.514702
