43 
5trh_ligand_dft.xyz
 C    1.133455    1.234884   -1.209159
 C    1.440712   -2.025896    0.205551
 C    0.547589    1.672197   -0.018952
 C    1.244179    2.546235    0.817492
 C    2.366154   -2.367361   -0.778251
 C    1.808684   -1.118734    1.200536
 C    2.403356    1.677364   -1.561960
 C    2.504969    3.001162    0.453004
 C    3.641412   -1.811252   -0.781260
 C    0.027471   -2.536061    0.145878
 C   -4.250357   -2.399967    0.183907
 C    3.980666   -0.904444    0.215611
Cl    5.569299   -0.174452    0.204298
 C   -2.645282   -0.183991   -0.291208
 C   -2.083353   -1.470068   -0.256842
 C   -4.016277   -0.009820   -0.100998
 N   -1.741437    0.912313   -0.512327
 O   -0.747884   -1.519765   -0.492856
 C   -2.882330   -2.579786   -0.011052
 C   -4.813220   -1.134901    0.131757
 C   -4.733905    1.325306   -0.113150
 C   -0.756192    1.129450    0.464691
 O   -3.993116    2.425783   -0.250175
 O   -5.933672    1.389940   -0.006433
 O   -0.978152    0.909270    1.637258
 C    3.077716   -0.555379    1.213527
 C    3.086548    2.565336   -0.736130
 H    0.637864    0.488920   -1.823886
 H    0.788652    2.852114    1.753859
 H    2.089314   -3.068550   -1.561285
 H    1.082254   -0.813776    1.948874
 H    2.868887    1.311380   -2.471442
 H    3.040900    3.687885    1.100830
 H    4.361132   -2.072756   -1.549089
 H   -0.373499   -2.715003    1.150492
 H   -0.034626   -3.468436   -0.429068
 H   -4.879576   -3.263790    0.373338
 H   -1.403475    0.984615   -1.465598
 H   -2.447614   -3.573492    0.017124
 H   -5.876318   -0.982947    0.276033
 H   -3.047643    2.176430   -0.310522
 H    3.355497    0.165727    1.973450
 H    4.080850    2.903695   -1.010194
