50 
5trk_ligand_dft.xyz
 N   -4.965676    0.244005    0.300166
 C   -6.965736    0.830635   -0.906067
 C   -6.068110    1.162098    0.274199
 C    1.047272   -3.221169   -0.619102
 C    1.731854   -2.033804   -1.245159
 C    1.003094   -1.104319   -1.988393
 C    1.607585    0.047834   -2.478400
 C    2.957250    0.263376   -2.222901
 C   -3.865347    0.534786    1.054582
 C    3.759389   -0.000281    2.080851
Cl    3.724912    1.704913   -2.842801
 C   -2.718544   -0.423816    0.938200
 C   -1.450868    0.064894    1.255251
 C   -0.339471   -0.769352    1.157052
 C   -0.522420   -2.107311    0.765908
 C   -1.788255   -2.597500    0.480475
 C   -2.891514   -1.755701    0.558696
 N    0.973749   -0.376510    1.433361
 C    1.487638    0.896101    1.338511
 C    2.985062    0.960941    1.426166
 O    0.805743    1.890404    1.164109
 O   -3.832985    1.520186    1.776703
 O   -8.066352    1.590909   -1.026325
 O   -6.730002   -0.046211   -1.694958
 O    0.582010   -2.927767    0.709170
 C    3.706336   -0.645160   -1.483690
 C    3.084512   -1.789857   -0.999807
 C    5.147285    0.089521    2.061967
 C    5.769317    1.137147    1.386879
 C    4.999224    2.108100    0.750558
 C    3.612380    2.025709    0.779582
 H   -4.923279   -0.406304   -0.473209
 H   -5.709319    2.198070    0.191634
 H   -6.650747    1.108049    1.204436
 H    1.740644   -4.055286   -0.491292
 H    0.203719   -3.558239   -1.233245
 H   -0.053992   -1.272356   -2.175007
 H    1.038523    0.773868   -3.047913
 H    3.287343   -0.808747    2.632904
 H   -1.335990    1.096672    1.557648
 H   -1.899428   -3.643956    0.213795
 H   -3.881690   -2.156651    0.365521
 H    1.630680   -1.141270    1.365520
 H   -8.106152    2.250673   -0.320028
 H    4.750613   -0.446387   -1.269775
 H    3.662239   -2.496304   -0.408868
 H    5.743228   -0.655374    2.580689
 H    6.853176    1.202323    1.366444
 H    5.479244    2.928115    0.225800
 H    2.996276    2.769696    0.286149
