77 
5trr_ligand_ani.xyz
 C   -3.050506    0.268875    0.788431
 O   -2.890493   -0.217453    1.900012
 C   -4.376364    0.227824    0.045065
 C   -5.509733   -0.306947    0.922931
 C   -6.820265   -0.379799    0.178216
 C   -7.805340    0.591941    0.357221
 C   -8.999500    0.537712   -0.356894
 C   -9.224068   -0.493679   -1.263420
 C   -8.246173   -1.466509   -1.454126
 C   -7.052998   -1.404664   -0.742011
 O   -0.404423    2.561758   -1.104082
 C   -0.098903    2.273333    0.044474
 C   -0.737943    1.062525    0.739889
 C    0.118785   -0.209563    0.575773
 C    1.335939   -0.288282    1.493730
 N    1.971874   -1.484376    1.589415
 C    1.489643   -2.705542    0.953558
 C    0.459939   -3.486840    1.766824
 C    3.120539   -1.580092    2.494727
 C    2.758875   -1.646566    3.975853
 O    1.745685    0.701019    2.108801
 N   -2.032474    0.879111    0.125517
 N    0.805887    2.990456    0.762617
 C    1.630360    3.953053    0.056677
 C    2.674488    3.305204   -0.865461
 O    3.099591    3.909641   -1.840019
 C    2.311776    4.912646    1.027110
 C    4.715173   -2.770524   -0.584204
 C    5.520140   -1.834549    0.020622
 C    3.656095   -2.376879   -1.445446
 C    2.273074   -0.615398   -2.414034
 C    3.399515   -0.989410   -1.624907
 C    1.500128   -1.554296   -3.054266
 N    3.114038    2.066563   -0.526404
 C    4.146262    1.439247   -1.333989
 C    4.290650   -0.032728   -1.040541
 C    5.308090   -0.466654   -0.222287
 C    1.796391   -2.922294   -2.928560
 C    2.847120   -3.319636   -2.136642
 H   -4.256146   -0.402486   -0.847527
 H   -4.615069    1.234042   -0.322244
 H   -5.223961   -1.295999    1.296847
 H   -5.609679    0.332734    1.806009
 H   -7.637815    1.398772    1.068578
 H   -9.757144    1.302340   -0.201406
 H  -10.156818   -0.539880   -1.820180
 H   -8.412182   -2.274811   -2.162354
 H   -6.286782   -2.162627   -0.900950
 H   -0.879028    1.250881    1.808711
 H   -0.537700   -1.057495    0.786543
 H    0.447409   -0.316737   -0.466017
 H    1.096542   -2.463253   -0.039131
 H    2.361510   -3.346172    0.797619
 H    0.884556   -3.820499    2.720413
 H    0.147332   -4.378600    1.211871
 H   -0.438836   -2.899376    1.989023
 H    3.757099   -0.708070    2.312366
 H    3.687446   -2.471494    2.202896
 H    3.673415   -1.720530    4.574848
 H    2.136543   -2.520622    4.199676
 H    2.220566   -0.745234    4.283273
 H   -2.161942    1.325778   -0.774025
 H    1.192168    2.531174    1.581312
 H    0.974352    4.510367   -0.616149
 H    2.895436    5.655879    0.474977
 H    2.993711    4.375722    1.698399
 H    1.562825    5.431969    1.631146
 H    4.876410   -3.830555   -0.408188
 H    6.325378   -2.148580    0.679458
 H    2.009484    0.435794   -2.495653
 H    0.659398   -1.238152   -3.666058
 H    2.825707    1.637990    0.347086
 H    5.103505    1.948522   -1.158792
 H    3.903158    1.615488   -2.388591
 H    5.971287    0.260697    0.241132
 H    1.188433   -3.660503   -3.442997
 H    3.074146   -4.377535   -2.023498
