77 
5trr_ligand_xtb.xyz
 C   -2.816192    0.045915    0.671360
 O   -2.600620   -0.882572    1.427718
 C   -4.172868    0.338038    0.054156
 C   -5.253266   -0.584924    0.625823
 C   -6.601873   -0.232504    0.069845
 C   -7.342421    0.801597    0.629430
 C   -8.572884    1.153830    0.105411
 C   -9.080778    0.475125   -0.989400
 C   -8.350657   -0.555372   -1.555634
 C   -7.118934   -0.904144   -1.029905
 O   -0.292407    2.864299   -0.486083
 C    0.164967    2.184986    0.413486
 C   -0.508025    0.865241    0.822830
 C    0.251911   -0.351153    0.241954
 C    1.349969   -0.852032    1.158173
 N    1.570308   -2.171726    1.231374
 C    0.793614   -3.178781    0.532428
 C   -0.510395   -3.549324    1.240552
 C    2.638568   -2.626096    2.108957
 C    2.159245   -2.906660    3.529522
 O    2.044394   -0.061946    1.802405
 N   -1.852718    0.912514    0.304013
 N    1.243924    2.483247    1.144299
 C    2.167100    3.545883    0.817501
 C    3.379518    3.046015    0.012630
 O    3.929056    3.750759   -0.809717
 C    2.663760    4.225713    2.091088
 C    3.577372   -2.807955   -1.567159
 C    4.641391   -2.632174   -0.730987
 C    2.891583   -1.694778   -2.095858
 C    2.643583    0.712848   -2.343298
 C    3.323178   -0.381713   -1.762560
 C    1.573494    0.517994   -3.173606
 N    3.792448    1.802689    0.316066
 C    4.854390    1.140628   -0.416791
 C    4.415534   -0.226626   -0.866350
 C    5.046030   -1.339242   -0.371049
 C    1.132242   -0.778837   -3.477064
 C    1.785269   -1.860281   -2.956194
 H   -4.101714    0.207726   -1.028618
 H   -4.430020    1.381938    0.246727
 H   -4.997427   -1.618203    0.387228
 H   -5.254098   -0.485133    1.712747
 H   -6.951706    1.330433    1.487591
 H   -9.138585    1.958137    0.553048
 H  -10.042881    0.747214   -1.397885
 H   -8.742679   -1.090199   -2.408666
 H   -6.553905   -1.711613   -1.474260
 H   -0.546916    0.771336    1.915218
 H   -0.489018   -1.123929    0.064474
 H    0.704267   -0.076004   -0.714932
 H    0.590447   -2.833625   -0.484275
 H    1.423134   -4.068453    0.451323
 H   -0.308709   -4.013809    2.201186
 H   -1.060346   -4.259310    0.627901
 H   -1.142344   -2.681457    1.412750
 H    3.392118   -1.835230    2.134081
 H    3.086215   -3.520569    1.671422
 H    3.010680   -3.148555    4.160015
 H    1.463638   -3.740725    3.553842
 H    1.666188   -2.026491    3.933100
 H   -2.014089    1.668274   -0.352183
 H    1.559395    1.772058    1.798629
 H    1.634555    4.262805    0.184043
 H    3.360936    5.018280    1.833957
 H    3.171317    3.503359    2.727570
 H    1.828349    4.653723    2.639703
 H    3.247471   -3.799358   -1.843878
 H    5.175910   -3.482814   -0.333842
 H    2.971372    1.718972   -2.141822
 H    1.062672    1.368236   -3.599233
 H    3.277173    1.221987    0.966081
 H    5.738818    1.048909    0.224552
 H    5.111041    1.785125   -1.263634
 H    5.878144   -1.222979    0.308783
 H    0.284053   -0.913943   -4.131937
 H    1.468876   -2.864833   -3.201415
