75 
5trs_ligand_ani.xyz
 C    5.775972    0.231812   -1.827623
 C    6.741119    0.237762   -0.874167
 C    8.223253    0.092667   -0.910449
 O    6.177412    0.423807    0.332828
 N    4.816000    0.556296    0.193891
 C    4.585304    0.441082   -1.095930
 C    3.200177    0.518266   -1.635599
 O    2.945433    0.237172   -2.800426
 O    0.888595    2.130405    1.113516
 C    0.244863    1.850777    0.097465
 C    0.885594    1.047107   -1.050278
 C    0.256334   -0.348838   -1.221857
 C   -1.128789   -0.358442   -1.839598
 N   -1.690995   -1.612790   -1.823731
 O   -2.743875   -1.816512   -2.693822
 C   -3.999261   -2.054355   -2.006760
 C   -4.015687   -3.490449   -1.481695
 C   -5.029521   -1.875879   -3.117473
 C   -4.228199   -1.033614   -0.891443
 O   -1.717382    0.622418   -2.266677
 N    2.285845    0.917103   -0.730320
 O   -2.744240    4.339794   -0.558453
 N   -1.041801    2.202341   -0.062392
 C   -1.822956    2.813183    1.005839
 C   -2.179973    1.769368    2.083294
 O   -3.314888    1.325154    2.189401
 C   -3.098711    3.403494    0.427185
 C   -3.860385    4.846337   -1.245491
 C   -0.910792   -3.371344    1.189926
 C   -2.133288   -2.947526    1.661202
 C    0.278182   -2.667746    1.512500
 C    1.386240   -0.769951    2.580602
 C    0.187436   -1.497570    2.330079
 C    2.593757   -1.163687    2.055652
 N   -1.144507    1.391229    2.877545
 C   -1.244619    0.166872    3.657808
 C   -1.091848   -1.088675    2.822444
 C   -2.216469   -1.801850    2.467285
 C    2.678893   -2.318457    1.256627
 C    1.546317   -3.059834    1.010091
 H    5.876576    0.102744   -2.894555
 H    8.548061   -0.757401   -0.303662
 H    8.553482   -0.066278   -1.938725
 H    8.711193    0.992937   -0.524823
 H    0.764078    1.586755   -1.996752
 H    0.930263   -0.917706   -1.874024
 H    0.228851   -0.867405   -0.258568
 H   -1.048901   -2.396005   -1.849181
 H   -3.229355   -3.659120   -0.738701
 H   -3.865732   -4.197480   -2.303828
 H   -4.979405   -3.700849   -1.005875
 H   -6.042326   -2.060343   -2.741982
 H   -4.990531   -0.855535   -3.513578
 H   -4.832131   -2.573560   -3.937022
 H   -3.577556   -1.213417   -0.029063
 H   -4.043093   -0.023163   -1.268800
 H   -5.265437   -1.100936   -0.547033
 H    2.557830    1.193070    0.206456
 H   -1.509765    1.935305   -0.925572
 H   -1.214826    3.609334    1.453384
 H   -3.712466    2.590346    0.004785
 H   -3.690488    3.872717    1.226995
 H   -3.490878    5.562868   -1.982778
 H   -4.556888    5.360747   -0.565371
 H   -4.409248    4.048087   -1.769239
 H   -0.825021   -4.248683    0.556340
 H   -3.040680   -3.498351    1.422589
 H    1.345444    0.124205    3.195884
 H    3.486378   -0.572967    2.240562
 H   -0.221668    1.691420    2.570464
 H   -2.230695    0.161565    4.131161
 H   -0.499330    0.209915    4.460751
 H   -3.192748   -1.454153    2.797718
 H    3.633667   -2.627010    0.837634
 H    1.595443   -3.951865    0.390713
