79 
5ts0_ligand_ani.xyz
 C   -2.396741   -0.130996   -1.304891
 O   -2.250757    0.651817   -2.236098
 C   -3.758588   -0.503472   -0.735592
 C   -4.899781    0.216891   -1.456486
 C   -6.254825   -0.155114   -0.905686
 C   -6.956846    0.713947   -0.070031
 C   -8.191390    0.351298    0.462129
 C   -8.742605   -0.890368    0.162026
 C   -8.050469   -1.766882   -0.669689
 C   -6.815085   -1.401793   -1.193974
 N   -1.342617   -0.733693   -0.698476
 C    0.009553   -0.600498   -1.186015
 C    0.573424    0.812339   -0.898947
 C    1.696928    1.220660   -1.845688
 O    2.257562    0.418288   -2.596647
 N    2.061593    2.522158   -1.848439
 C    1.606804    3.564420   -0.927829
 C    2.204426    4.842306   -1.521370
 C    3.091389    2.994196   -2.776913
 C    3.485931    4.356109   -2.205348
 C    0.828346   -1.726576   -0.523043
 O    0.309787   -2.492433    0.295202
 O    3.944522   -3.291288   -2.333205
 N    2.122691   -1.807121   -0.870633
 C    3.050381   -2.719328   -0.213964
 C    3.413562   -2.196069    1.190919
 O    4.510913   -1.713677    1.433316
 C    4.312353   -2.855516   -1.049216
 C    5.035490   -3.339664   -3.218038
 C    1.493227    2.641607    2.722466
 C    2.793873    2.250336    2.923444
 C    0.439942    1.689601    2.685355
 C   -0.335455   -0.615928    2.869447
 C    0.742680    0.314285    2.900146
 C   -1.626371   -0.209238    2.625873
 N    2.419508   -2.309641    2.109450
 C    2.476367   -1.524637    3.332593
 C    2.102338   -0.069194    3.129643
 C    3.092188    0.888085    3.112807
 C   -1.913986    1.145967    2.389269
 C   -0.900192    2.072849    2.424812
 H   -3.770326   -0.268563    0.338398
 H   -3.885038   -1.593238   -0.802535
 H   -4.741342    1.297580   -1.382652
 H   -4.843452   -0.023286   -2.523804
 H   -6.533478    1.689189    0.163411
 H   -8.724455    1.043084    1.110424
 H   -9.707343   -1.175466    0.574448
 H   -8.472883   -2.740013   -0.908387
 H   -6.273458   -2.093986   -1.837814
 H   -1.477451   -1.447130    0.006956
 H    0.030204   -0.739589   -2.274828
 H   -0.261105    1.505685   -1.037802
 H    0.891872    0.919290    0.148669
 H    0.513905    3.600754   -0.878673
 H    1.977790    3.375410    0.088432
 H    2.387457    5.605159   -0.760150
 H    1.516784    5.264507   -2.263071
 H    3.913046    2.274637   -2.815628
 H    2.677549    3.071268   -3.790463
 H    4.289309    4.233825   -1.469140
 H    3.844562    5.043902   -2.976242
 H    2.453633   -1.210139   -1.626324
 H    2.556749   -3.695697   -0.123790
 H    5.001195   -3.567257   -0.570370
 H    4.827949   -1.882564   -1.087947
 H    4.657821   -3.692405   -4.180498
 H    5.488592   -2.345578   -3.355708
 H    5.814059   -4.032907   -2.864014
 H    1.244605    3.689755    2.579802
 H    3.592524    2.986852    2.937875
 H   -0.139540   -1.667984    3.050174
 H   -2.425725   -0.947542    2.613621
 H    1.504745   -2.565859    1.743865
 H    3.501538   -1.583293    3.708402
 H    1.829023   -2.003337    4.077191
 H    4.128916    0.583518    3.242429
 H   -2.934287    1.465513    2.191058
 H   -1.099590    3.124577    2.241582
