26 
5tt3_ligand_ani.xyz
 N    3.980789    0.453089   -1.408461
 C   -0.289193    0.730442   -0.075641
 C   -0.527697   -0.655508   -0.027233
 C   -1.812600   -1.172712   -0.100077
 C   -2.884179   -0.286658   -0.216494
 C   -5.268875   -0.067008   -0.431650
 O    4.001158   -1.188143    0.492285
 O    3.942974    1.315973    0.963577
 S    3.572595    0.160725    0.173065
 C    1.782596    0.060095    0.096883
 N    1.046389    1.103025   -0.003232
 S    0.992903   -1.489896    0.124043
 C   -2.661291    1.099710   -0.256406
 C   -1.371584    1.604132   -0.189318
 O   -4.106596   -0.876358   -0.300114
 C   -5.719330    0.527498    0.893594
 H    4.573093   -0.280659   -1.783160
 H    4.354284    1.387369   -1.535590
 H   -2.018786   -2.238094   -0.073906
 H   -6.030752   -0.748720   -0.818448
 H   -5.104738    0.708583   -1.191814
 H   -3.490149    1.794007   -0.338947
 H   -1.188050    2.673414   -0.226466
 H   -5.897693   -0.269768    1.621374
 H   -4.972267    1.208839    1.313046
 H   -6.650538    1.087252    0.754098
