100 
5ttw_ligand_dft.xyz
 N   -2.811674    1.648198   -1.135611
 C   -2.401811    0.972059   -2.434353
 C   -0.981990    1.465624   -2.765909
 O   -0.747800    2.217951   -3.689383
 C   -3.446527    1.429002   -3.445127
 C   -3.809917    2.839679   -2.971890
 C   -3.841405    2.704801   -1.451357
 N   -0.043217    1.057578   -1.857686
 C    1.050165    1.966199   -1.516499
 C    1.776068    1.309854   -0.339009
 O    1.766107    1.820715    0.778355
 C    0.508816    3.345392   -1.111491
 O   -0.584617    3.222203   -0.218276
 N    2.362899    0.119109   -0.618722
 C    2.780356   -0.860859    0.391929
 C    3.772576   -0.310227    1.425318
 C    5.065434    0.256497    0.831798
 C    5.982856   -0.806876    0.206371
 C    7.299087   -0.159354   -0.206471
 N    8.357857   -1.087351   -0.781072
 C    1.542056   -1.521804    1.027817
 O    1.264058   -2.683916    0.786628
 C    7.848292   -1.796541   -1.997822
 C    9.543304   -0.251578   -1.169313
 C    8.796774   -2.096532    0.236703
 N    0.786264   -0.734931    1.843814
 C   -0.497585   -1.223156    2.280695
 C   -1.490097   -1.237855    1.110223
 O   -1.355083   -0.510566    0.127772
 C   -1.047956   -0.376620    3.450104
 C   -1.378440    1.055113    3.093857
 C   -2.626001    1.380611    2.553037
 C   -0.455958    2.080784    3.310279
 C   -2.946217    2.696731    2.237649
 C   -0.775130    3.403436    3.003708
 C   -2.022229    3.714522    2.467086
 C   -5.408307   -5.313160   -1.182156
 C   -5.134813   -3.816741   -1.013636
 C   -4.752377   -3.176152   -2.352041
 C   -4.049238   -3.611715    0.058659
 C   -3.598282   -2.162907    0.241770
 N   -2.553689   -2.056257    1.253220
 C   -4.694294   -1.138484    0.576095
 O   -4.608849    0.023856    0.175428
 N   -5.692429   -1.533394    1.383194
 H   -3.228863    0.940889   -0.501786
 H   -1.995659    2.082712   -0.662033
 H   -2.390803   -0.104181   -2.250885
 H   -3.039871    1.417723   -4.457169
 H   -4.316796    0.766232   -3.404196
 H   -4.768146    3.185568   -3.363411
 H   -3.036129    3.545878   -3.283818
 H   -3.576697    3.613946   -0.910758
 H   -4.799435    2.327804   -1.089610
 H   -0.393171    0.496198   -1.081336
 H    1.723646    2.075366   -2.374128
 H    0.132401    3.853304   -1.999827
 H    1.308448    3.949525   -0.672789
 H   -0.233814    2.995066    0.658181
 H    2.143647   -0.265289   -1.529143
 H    3.248261   -1.676787   -0.163859
 H    4.007933   -1.128939    2.116321
 H    3.292533    0.474718    2.010633
 H    5.607020    0.764503    1.638446
 H    4.822124    1.023465    0.087026
 H    6.151466   -1.600543    0.942761
 H    5.490065   -1.258128   -0.661387
 H    7.770374    0.327072    0.652491
 H    7.125929    0.603494   -0.971263
 H    7.048426   -2.478657   -1.712766
 H    8.667896   -2.362432   -2.442661
 H    7.479823   -1.057358   -2.710761
 H    9.236836    0.470705   -1.926798
 H    9.916139    0.268574   -0.286113
 H   10.320754   -0.902616   -1.570868
 H    7.963892   -2.752901    0.484789
 H    9.141970   -1.573337    1.129575
 H    9.611687   -2.686528   -0.184720
 H    0.947592    0.267616    1.840640
 H   -0.356872   -2.251468    2.628010
 H   -1.943161   -0.873542    3.838871
 H   -0.300001   -0.407882    4.248313
 H   -3.367422    0.601875    2.398114
 H    0.511532    1.853191    3.751299
 H   -3.929717    2.927986    1.838472
 H   -0.053889    4.190726    3.199646
 H   -2.272644    4.744894    2.237231
 H   -5.684055   -5.782815   -0.231893
 H   -4.521442   -5.829008   -1.568320
 H   -6.226307   -5.481081   -1.888550
 H   -6.062385   -3.340595   -0.667632
 H   -4.699530   -2.082342   -2.290022
 H   -3.782281   -3.549763   -2.703268
 H   -5.496780   -3.419117   -3.115518
 H   -4.392372   -4.033767    1.015733
 H   -3.157862   -4.188448   -0.218535
 H   -3.150087   -1.805405   -0.686016
 H   -2.590282   -2.678716    2.048708
 H   -5.841014   -2.499078    1.631508
 H   -6.418767   -0.869381    1.614805
