100 
5ttw_ligand_ani.xyz
 N   -2.953155    2.498412   -0.383967
 C   -2.255891    2.606261   -1.719794
 C   -0.770417    2.952291   -1.484000
 O   -0.288603    4.043439   -1.735860
 C   -2.979163    3.723370   -2.476717
 C   -3.440354    4.660488   -1.361966
 C   -3.838526    3.697884   -0.235170
 N   -0.057364    1.943138   -0.885367
 C    0.914001    2.318498    0.135853
 C    1.577112    1.026929    0.635275
 O    1.482992    0.687241    1.816173
 C    0.232534    3.048651    1.304908
 O   -0.947416    2.351940    1.686684
 N    2.223043    0.305437   -0.310033
 C    2.760009   -1.054425   -0.128438
 C    3.770333   -1.160216    1.020139
 C    5.005629   -0.272151    0.855884
 C    5.864862   -0.634411   -0.356638
 C    7.175269    0.147671   -0.371980
 N    8.167170   -0.233101   -1.458319
 C    1.617809   -2.077273   -0.018460
 O    1.423410   -2.909012   -0.891235
 C    7.587871   -0.046407   -2.816628
 C    9.343577    0.657943   -1.331385
 C    8.635550   -1.636556   -1.299329
 N    0.851107   -1.980468    1.105623
 C   -0.465596   -2.568133    1.106939
 C   -1.424029   -1.771201    0.207179
 O   -1.279553   -0.576851   -0.040337
 C   -1.005970   -2.678233    2.546616
 C   -1.222057   -1.352315    3.245494
 C   -2.438127   -0.671700    3.120109
 C   -0.218706   -0.778831    4.033904
 C   -2.656824    0.532786    3.782672
 C   -0.433517    0.424507    4.701940
 C   -1.655314    1.081547    4.580195
 C   -6.126924   -3.530246   -3.443428
 C   -5.496750   -2.383876   -2.653606
 C   -5.175859   -1.202756   -3.567998
 C   -4.256418   -2.893150   -1.910455
 C   -3.488991   -1.834588   -1.111306
 N   -2.482354   -2.471241   -0.273087
 C   -4.407559   -0.943777   -0.258309
 O   -4.525593    0.256721   -0.468379
 N   -5.114101   -1.570370    0.721415
 H   -3.517742    1.633700   -0.356131
 H   -2.279249    2.449429    0.409292
 H   -2.327104    1.628656   -2.216069
 H   -2.322003    4.207082   -3.200931
 H   -3.837528    3.304032   -3.013593
 H   -4.266037    5.310533   -1.664174
 H   -2.604477    5.289652   -1.042627
 H   -3.716619    4.127196    0.762339
 H   -4.879168    3.377968   -0.342943
 H   -0.597263    1.111136   -0.650102
 H    1.662734    2.973283   -0.326930
 H   -0.062179    4.049475    0.977505
 H    0.923377    3.143962    2.149526
 H   -0.630904    1.528900    2.102844
 H    2.010908    0.567293   -1.263965
 H    3.247522   -1.307912   -1.072041
 H    4.082662   -2.211103    1.085672
 H    3.275044   -0.914467    1.961251
 H    5.609441   -0.373298    1.767211
 H    4.700651    0.780723    0.802916
 H    6.070848   -1.712772   -0.333499
 H    5.299508   -0.433934   -1.274996
 H    7.705446    0.018103    0.578451
 H    6.977018    1.218036   -0.499050
 H    6.763607   -0.741020   -2.975101
 H    8.367727   -0.239947   -3.558258
 H    7.235033    0.983223   -2.916367
 H    9.022791    1.695023   -1.456521
 H    9.790027    0.523909   -0.342833
 H   10.071912    0.399777   -2.103758
 H    7.817030   -2.333787   -1.474891
 H    9.028459   -1.768298   -0.288116
 H    9.428423   -1.824569   -2.028601
 H    0.971451   -1.125939    1.642472
 H   -0.368420   -3.576681    0.693392
 H   -1.952925   -3.232281    2.516196
 H   -0.297632   -3.293900    3.112116
 H   -3.219650   -1.082939    2.482063
 H    0.750528   -1.267219    4.120453
 H   -3.609672    1.045955    3.672269
 H    0.359654    0.853548    5.308603
 H   -1.821441    2.024733    5.092898
 H   -6.385538   -4.370713   -2.789420
 H   -5.431351   -3.900375   -4.207671
 H   -7.041227   -3.205515   -3.952610
 H   -6.222759   -2.045430   -1.901715
 H   -4.844650   -0.329680   -2.998730
 H   -4.385913   -1.465754   -4.283901
 H   -6.061086   -0.909096   -4.143062
 H   -4.558533   -3.702760   -1.231710
 H   -3.556001   -3.334485   -2.633601
 H   -2.977846   -1.146245   -1.788423
 H   -2.510419   -3.473711   -0.163191
 H   -4.912673   -2.517469    1.001736
 H   -5.701492   -1.006004    1.317098
