14 
5tuo_ligand_dft.xyz
 S    1.758437   -0.047620   -0.139911
 O    2.315792    0.911248   -1.069001
 O    1.930018   -1.482507   -0.289887
 N    2.235381    0.327307    1.408939
 N   -0.533293    1.388977   -0.046235
 N   -1.889628    1.359817    0.008089
 S   -1.129302   -1.111063   -0.014288
 C   -0.000956    0.217967   -0.073426
 C   -2.352666    0.133275    0.031336
 N   -3.681925   -0.146009    0.142442
 H    2.650995    1.251391    1.464940
 H    2.828999   -0.403826    1.786661
 H   -4.280755    0.654810   -0.007632
 H   -4.023889   -1.011477   -0.245790
