58 
5tuq_ligand_ani.xyz
 O    1.630268    2.916868   -0.797189
 C    1.082935    1.811917   -0.801697
 C   -0.045850    1.367871    0.000319
 C   -0.720878    2.421478    0.855280
 C    0.190367    2.923183    1.984896
 C   -1.225256    3.617013    0.033968
 C   -0.411072    0.044326   -0.047951
 C   -1.505400   -0.536385    0.815694
 C   -2.891314   -0.679124    0.140042
 C   -3.847653   -1.442167    1.068051
 C   -5.230509   -1.636309    0.442097
 C   -5.839554   -0.296175    0.024260
 C   -4.896190    0.463046   -0.911530
 C   -3.519115    0.658606   -0.273259
 N    0.201259   -0.842614   -0.948319
 C   -0.016908   -2.286028   -0.858708
 O    0.596506   -2.888145    0.250379
 C    2.017291   -2.996672    0.176706
 C    2.732922   -1.784537    0.742607
 C    3.852992   -1.248814    0.107130
 C    4.505317   -0.138428    0.636772
 C    4.043645    0.444216    1.812498
 C    2.923236   -0.082855    2.449592
 C    2.269705   -1.186871    1.913743
 C    1.209478   -0.444884   -1.849554
 N    1.581309    0.872202   -1.697311
 O    2.621979    1.300094   -2.497419
 O    1.722985   -1.192462   -2.654346
 H   -1.601834    1.966859    1.327104
 H    1.092925    3.374342    1.564119
 H   -0.334101    3.673123    2.587438
 H    0.486501    2.103668    2.649883
 H   -1.776964    4.310082    0.679434
 H   -0.385643    4.147791   -0.420213
 H   -1.898886    3.289606   -0.767720
 H   -1.627860    0.079549    1.711850
 H   -1.187725   -1.520964    1.180989
 H   -2.779119   -1.268878   -0.784029
 H   -3.946786   -0.875563    2.007403
 H   -3.411459   -2.414124    1.334955
 H   -5.894679   -2.161266    1.139287
 H   -5.135563   -2.280416   -0.444430
 H   -6.020251    0.312432    0.922517
 H   -6.816139   -0.447842   -0.451601
 H   -5.327025    1.433211   -1.188319
 H   -4.781340   -0.105615   -1.846021
 H   -2.857098    1.191367   -0.968536
 H   -3.630611    1.298050    0.616835
 H    0.360868   -2.700024   -1.795397
 H   -1.085298   -2.474297   -0.772404
 H    2.331120   -3.153819   -0.865686
 H    2.264427   -3.897242    0.751717
 H    4.213734   -1.694373   -0.819368
 H    5.375681    0.271988    0.127744
 H    4.555523    1.307638    2.231557
 H    2.552150    0.372525    3.366879
 H    1.391135   -1.595821    2.407169
 H    2.753297    2.205602   -2.140893
