58 
5tuq_ligand_xtb.xyz
 O    1.803769    2.733705   -0.706235
 C    1.180509    1.680047   -0.688094
 C    0.015907    1.335874    0.090036
 C   -0.602912    2.462288    0.893468
 C    0.330056    2.871958    2.034870
 C   -0.919487    3.667049    0.003340
 C   -0.425885    0.047153    0.087997
 C   -1.579973   -0.435646    0.918878
 C   -2.888096   -0.575747    0.113032
 C   -3.933492   -1.320278    0.945858
 C   -5.228883   -1.497111    0.158354
 C   -5.776601   -0.144410   -0.285058
 C   -4.736294    0.599311   -1.116125
 C   -3.446602    0.779118   -0.319767
 N    0.178795   -0.907809   -0.705410
 C   -0.082749   -2.337926   -0.532757
 O    0.331039   -2.817918    0.705418
 C    1.731802   -3.045123    0.826778
 C    2.552218   -1.780170    0.869818
 C    3.587561   -1.572382   -0.031801
 C    4.322848   -0.399999    0.005833
 C    4.033152    0.571313    0.948552
 C    3.008397    0.365759    1.857253
 C    2.269064   -0.802175    1.816345
 C    1.199298   -0.617494   -1.606659
 N    1.625430    0.678795   -1.538453
 O    2.704872    1.038843   -2.329166
 O    1.650395   -1.430616   -2.374779
 H   -1.544303    2.120985    1.325462
 H    1.280901    3.210807    1.634987
 H   -0.116087    3.682856    2.605892
 H    0.504011    2.030743    2.702158
 H   -1.436903    4.425639    0.585814
 H   -0.005934    4.098336   -0.392906
 H   -1.558411    3.376232   -0.827823
 H   -1.750557    0.246425    1.749543
 H   -1.320158   -1.403470    1.347897
 H   -2.692431   -1.155563   -0.795746
 H   -4.137740   -0.752561    1.856660
 H   -3.545702   -2.297730    1.241736
 H   -5.966330   -2.015076    0.774467
 H   -5.036329   -2.115075   -0.721942
 H   -6.029761    0.450689    0.595317
 H   -6.688898   -0.284807   -0.867644
 H   -5.123844    1.575678   -1.413043
 H   -4.525903    0.033023   -2.026472
 H   -2.707865    1.303822   -0.927582
 H   -3.656816    1.387630    0.562497
 H    0.444262   -2.836355   -1.357360
 H   -1.152343   -2.543006   -0.605925
 H    2.071703   -3.684527    0.001643
 H    1.833267   -3.592780    1.768877
 H    3.809576   -2.321086   -0.777399
 H    5.114700   -0.243452   -0.710397
 H    4.601484    1.488937    0.975797
 H    2.789715    1.117156    2.600661
 H    1.462700   -0.964770    2.517654
 H    2.874780    1.963830   -2.018584
