37 
5tus_ligand_dft.xyz
 C   -2.535200   -0.252086   -0.050576
 O   -0.406298   -1.275641   -0.484323
 C   -2.900199    1.023010    0.384273
 O    0.346347    2.794332   -0.686845
 C   -4.062361    1.231122    1.119602
 C   -4.876825    0.144316    1.419181
 C   -4.534446   -1.132725    0.988667
 C   -1.234190   -0.439021   -0.776346
 C   -3.364332   -1.341299    0.256451
 O   -3.011679   -2.562862   -0.204731
 N   -1.068011    0.504051   -1.778694
 N   -0.011649    0.488372   -2.673879
 C    1.162273    0.553760   -2.171286
 C    1.593511    0.785770   -0.774507
 C    1.210256    1.923965   -0.093758
 C    1.722562    2.202659    1.197722
 C    2.623548    1.358882    1.783178
 C    3.048151    0.178342    1.123185
 C    2.516098   -0.116017   -0.160898
 C    3.977323   -0.713148    1.717026
 C    4.360681   -1.858621    1.070356
 C    3.812343   -2.166949   -0.195294
 C    2.910242   -1.324466   -0.792386
 H   -2.238129    1.852154    0.149594
 H    0.289439    3.590621   -0.145930
 H   -4.325812    2.227544    1.458559
 H   -5.788937    0.285016    1.991518
 H   -5.180854   -1.977064    1.218952
 H   -3.664815   -3.211266    0.084287
 H   -1.917766    0.830001   -2.216334
 H    1.956580    0.471300   -2.914037
 H    1.397891    3.103389    1.714942
 H    3.020354    1.585778    2.769058
 H    4.376686   -0.472296    2.699148
 H    5.071695   -2.537279    1.531464
 H    4.097258   -3.089510   -0.692253
 H    2.460459   -1.596950   -1.741298
