37 
5tus_ligand_xtb.xyz
 C   -2.791659   -0.231276   -0.015942
 O   -0.488192   -0.686272    0.450450
 C   -3.438178    0.905692   -0.483662
 O   -0.176760    1.933277   -0.821773
 C   -4.739522    1.188379   -0.109193
 C   -5.409361    0.323061    0.739241
 C   -4.783845   -0.818324    1.204644
 C   -1.355762   -0.476464   -0.367067
 C   -3.473681   -1.107985    0.835546
 O   -2.849080   -2.235995    1.240541
 N   -1.161702   -0.432326   -1.723115
 N   -0.031742   -0.531302   -2.460389
 C    1.135255   -0.225481   -2.056424
 C    1.626145    0.383944   -0.824649
 C    0.956359    1.449346   -0.240056
 C    1.467876    2.076139    0.909138
 C    2.639407    1.660392    1.467662
 C    3.360311    0.586272    0.907233
 C    2.847881   -0.064185   -0.245296
 C    4.568191    0.138797    1.479283
 C    5.245976   -0.921566    0.946847
 C    4.730128   -1.583822   -0.175276
 C    3.560038   -1.171382   -0.752220
 H   -2.899693    1.579035   -1.134682
 H   -0.526025    2.651632   -0.279572
 H   -5.227936    2.078710   -0.474147
 H   -6.424882    0.534160    1.039028
 H   -5.310462   -1.497169    1.862849
 H   -3.408262   -2.726453    1.855536
 H   -1.985030   -0.478684   -2.310462
 H    1.892502   -0.443668   -2.803218
 H    0.910668    2.897839    1.342390
 H    3.026626    2.147809    2.350681
 H    4.944965    0.649709    2.354249
 H    6.170966   -1.260770    1.389642
 H    5.261766   -2.432739   -0.580386
 H    3.167798   -1.711297   -1.599976
