104 
5tw2_ligand_ani.xyz
 C    1.667595   -0.590112    0.848236
 C    0.209374   -0.800816    0.447337
 O    2.132726    5.682897    1.230556
 C    3.072353   -6.167012    2.788064
 C    2.381171   -4.920910    2.239887
 C    3.218303   -4.197430    1.183988
 C    2.521002   -2.992368    0.547014
 C    2.322108   -1.810311    1.499338
 C   -0.417536    0.444066   -0.164929
 O    0.228088    1.454168   -0.425078
 C   -2.549027    1.444342   -0.920784
 C   -3.470463    0.978360   -2.056133
 O   -4.557101    0.129471   -1.667441
 C   -4.299593   -1.253427   -1.630183
 O   -3.815413   -1.673109   -0.383750
 C   -4.731649   -1.477515    0.700163
 C   -3.986996   -1.813461    1.972790
 O   -2.966284   -0.831947    2.128379
 C   -6.005405   -2.282861    0.488773
 O   -5.696856   -3.655725    0.487645
 C   -6.610879   -1.870311   -0.844745
 O   -7.709882   -2.721989   -1.104145
 C   -5.586508   -2.008249   -1.967526
 O   -6.149749   -1.588020   -3.195119
 C   -3.334389    2.154580    0.185208
 O   -4.198126    3.095483   -0.418526
 C   -2.466197    2.844758    1.245277
 O   -3.398637    3.210034    2.267777
 C   -1.741626    4.088713    0.726078
 C   -0.875941    4.769545    1.790376
 C    0.498501    4.099591    1.980945
 C    1.503795    4.661997    0.989371
 N    1.614055    3.993788   -0.188743
 C    2.678367    4.317749   -1.117727
 C    3.988297    3.587637   -0.809907
 C    3.831216    2.065866   -0.772669
 C    5.118074    1.295996   -0.473182
 C    6.210253    1.436151   -1.533585
 C    7.447864    0.570787   -1.244570
 C    7.138055   -0.905301   -1.122115
 C    7.272754   -1.569336    0.098736
 C    6.956341   -2.919904    0.218814
 C    6.504418   -3.630530   -0.887861
 C    6.365953   -2.982299   -2.111542
 C    6.674486   -1.630473   -2.223746
 N   -1.750031    0.350948   -0.393037
 H    2.240996   -0.299549   -0.042728
 H    1.719619    0.262554    1.536738
 H   -0.398411   -1.102848    1.311298
 H    0.118818   -1.613363   -0.289017
 H    2.456203   -6.667193    3.542357
 H    3.275526   -6.889216    1.988470
 H    4.031132   -5.912139    3.254654
 H    2.153917   -4.237920    3.068378
 H    1.414091   -5.202138    1.800394
 H    4.169592   -3.878260    1.636117
 H    3.479292   -4.914154    0.392796
 H    3.108703   -2.650120   -0.316075
 H    1.551352   -3.321209    0.146811
 H    3.302573   -1.513285    1.896373
 H    1.723677   -2.121554    2.367235
 H   -1.842423    2.155631   -1.359454
 H   -3.941294    1.852655   -2.514509
 H   -2.858950    0.473336   -2.816755
 H   -3.523577   -1.491980   -2.371964
 H   -5.012945   -0.414613    0.741929
 H   -3.563374   -2.820699    1.885830
 H   -4.683727   -1.795367    2.824412
 H   -2.575591   -0.937210    3.003137
 H   -6.719776   -2.041329    1.296314
 H   -6.469361   -4.094200    0.099515
 H   -6.942184   -0.819763   -0.782286
 H   -7.893065   -2.634905   -2.052264
 H   -5.348651   -3.069382   -2.077323
 H   -6.158947   -0.619586   -3.171850
 H   -3.918542    1.395762    0.725644
 H   -4.742402    3.449947    0.297991
 H   -1.748147    2.115888    1.648339
 H   -2.956304    3.153962    3.122713
 H   -1.115977    3.821172   -0.133052
 H   -2.508737    4.779939    0.363187
 H   -0.708591    5.821312    1.530969
 H   -1.426201    4.778032    2.740238
 H    0.424695    3.008835    1.879353
 H    0.889216    4.326629    2.976408
 H    1.136206    3.109847   -0.304550
 H    2.837533    5.398214   -1.075017
 H    2.329527    4.065397   -2.126757
 H    4.729598    3.878876   -1.564736
 H    4.368043    3.943193    0.157377
 H    3.096391    1.803509    0.000486
 H    3.404338    1.716407   -1.726656
 H    5.512135    1.621779    0.500669
 H    4.866949    0.231668   -0.362976
 H    6.528567    2.482791   -1.618865
 H    5.799335    1.158409   -2.514297
 H    7.917473    0.913732   -0.313307
 H    8.188218    0.730811   -2.040445
 H    7.624515   -1.015028    0.966937
 H    7.057135   -3.414857    1.183102
 H    6.260014   -4.687519   -0.799903
 H    6.012303   -3.529645   -2.981962
 H    6.555869   -1.127858   -3.183160
 H   -2.249083   -0.461718   -0.051324
