104 
5tw2_ligand_dft.xyz
 C    1.837441   -0.629254    0.568327
 C    0.331999   -0.737605    0.344349
 O    2.309785    5.695852    1.211154
 C    2.395185   -6.247118    2.682444
 C    1.913604   -4.944077    2.046470
 C    2.900188   -4.396865    1.012445
 C    2.435937   -3.117741    0.309508
 C    2.443709   -1.879830    1.211213
 C   -0.293813    0.532353   -0.211710
 O    0.368141    1.520365   -0.526283
 C   -2.442430    1.560967   -0.864643
 C   -3.347876    1.102429   -2.009196
 O   -4.387285    0.202015   -1.633672
 C   -4.083413   -1.164599   -1.598852
 O   -3.597230   -1.601217   -0.355518
 C   -4.509364   -1.487903    0.737336
 C   -3.760740   -1.966307    1.962139
 O   -2.710066   -1.044045    2.199961
 C   -5.804165   -2.252145    0.487013
 O   -5.543649   -3.635479    0.452623
 C   -6.399773   -1.787155   -0.839651
 O   -7.517535   -2.605821   -1.115318
 C   -5.366290   -1.914317   -1.956962
 O   -5.904966   -1.471205   -3.183555
 C   -3.239363    2.215545    0.268507
 O   -4.173232    3.107092   -0.303647
 C   -2.388219    2.943481    1.314947
 O   -3.352483    3.283048    2.313715
 C   -1.679096    4.195765    0.791358
 C   -0.756329    4.854636    1.827635
 C    0.615997    4.168053    1.965242
 C    1.617976    4.718590    0.954180
 N    1.637579    4.082939   -0.244612
 C    2.655824    4.367920   -1.237964
 C    3.970597    3.627887   -0.959253
 C    3.765183    2.118300   -0.835257
 C    5.006803    1.319587   -0.441916
 C    6.089895    1.264539   -1.518095
 C    7.264352    0.344261   -1.143687
 C    6.839170   -1.093262   -0.951174
 C    6.745742   -1.661133    0.320746
 C    6.311497   -2.973352    0.489934
 C    5.959123   -3.741166   -0.616060
 C    6.044993   -3.186247   -1.890766
 C    6.481950   -1.875843   -2.053046
 N   -1.635048    0.472373   -0.353504
 H    2.331890   -0.423092   -0.387948
 H    2.037597    0.239802    1.205060
 H   -0.187419   -0.991134    1.277756
 H    0.094488   -1.550852   -0.352357
 H    1.679551   -6.622636    3.421297
 H    2.534050   -7.026068    1.923709
 H    3.356550   -6.103425    3.189164
 H    1.745766   -4.199071    2.834412
 H    0.940328   -5.106966    1.563572
 H    3.868876   -4.213312    1.497070
 H    3.079750   -5.173545    0.256292
 H    3.090667   -2.920746   -0.549025
 H    1.429718   -3.290355   -0.097131
 H    3.485084   -1.666843    1.486764
 H    1.911208   -2.089081    2.149429
 H   -1.750749    2.287244   -1.301698
 H   -3.854982    1.975799   -2.419975
 H   -2.728334    0.642057   -2.790587
 H   -3.286209   -1.395045   -2.315001
 H   -4.769410   -0.430469    0.880373
 H   -3.382336   -2.978447    1.776458
 H   -4.459623   -2.001765    2.809725
 H   -2.205211   -1.349143    2.961554
 H   -6.508658   -2.007614    1.298767
 H   -6.322239   -4.032396    0.033857
 H   -6.699264   -0.731805   -0.747244
 H   -7.700784   -2.501570   -2.060266
 H   -5.120036   -2.971840   -2.080393
 H   -5.894873   -0.502942   -3.136803
 H   -3.763000    1.415018    0.812713
 H   -4.576842    3.565192    0.447493
 H   -1.658488    2.230401    1.726657
 H   -2.937901    3.876683    2.949907
 H   -1.083443    3.945185   -0.092701
 H   -2.449206    4.901111    0.463006
 H   -0.593315    5.905691    1.566814
 H   -1.241228    4.878508    2.814197
 H    0.511650    3.081290    1.857206
 H    1.040449    4.373528    2.950771
 H    1.137438    3.204488   -0.333271
 H    2.824590    5.447319   -1.249116
 H    2.256314    4.072567   -2.214714
 H    4.681282    3.864737   -1.761648
 H    4.395991    4.021682   -0.027467
 H    2.989843    1.937741   -0.085022
 H    3.359443    1.721703   -1.778037
 H    5.433540    1.735780    0.482426
 H    4.697832    0.293759   -0.202443
 H    6.481502    2.270346   -1.713845
 H    5.644168    0.912954   -2.459101
 H    7.732988    0.715915   -0.224084
 H    8.027411    0.398359   -1.929786
 H    7.015830   -1.065931    1.189930
 H    6.251120   -3.398000    1.488190
 H    5.617404   -4.763439   -0.484069
 H    5.775066   -3.777666   -2.761196
 H    6.550181   -1.449468   -3.051558
 H   -2.123310   -0.342598    0.009671
