47 
5tw3_ligand_dft.xyz
 C    0.168010   -1.672064   -0.031699
 C   -1.237037   -1.644800   -0.284630
 C   -2.123638   -1.849560    0.807503
 C   -1.611019   -2.070291    2.113576
 C   -0.256932   -2.096598    2.281438
 C    0.657224   -1.907418    1.227934
 C   -1.757678   -1.397586   -1.578802
 C   -3.108715   -1.365248   -1.794607
 C   -3.998408   -1.580608   -0.709505
 C   -3.517639   -1.812971    0.561042
 C   -5.417489   -1.557750   -0.937686
 N   -6.561536   -1.546439   -1.121923
 C   -1.087063    1.587281    0.859835
 C    4.170152    0.123668   -0.338071
 C    2.292353    1.800270    0.989767
 C    1.092719    2.246723    1.809716
 C   -0.081601    3.699003    0.256948
 C   -2.265943    2.978190   -0.736949
 C   -2.154123    1.768074    0.062691
 N   -0.077730    2.515405    0.987484
 N   -1.187933    3.862130   -0.545352
 O    0.948240   -1.463462   -1.124073
 O    1.873120    0.682963    0.226128
 O    0.821952    4.512032    0.328435
 O   -3.160366    3.260055   -1.507823
 C    5.012317   -0.793156   -0.957166
 C    4.546795   -1.933768   -1.584152
 C    3.171465   -2.157754   -1.594468
 C    2.306235   -1.263265   -0.990695
 C    2.797651   -0.110479   -0.351329
 F    0.257892   -2.307663    3.500215
 F    6.328594   -0.546658   -0.937353
 H   -2.274226   -2.224603    2.957066
 H    1.720502   -1.944768    1.431616
 H   -1.067955   -1.225190   -2.396173
 H   -3.510388   -1.168945   -2.782108
 H   -4.208289   -1.972187    1.383110
 H   -0.961541    0.692336    1.459465
 H    4.601166    1.005371    0.119117
 H    3.103873    1.522288    1.674372
 H    2.633706    2.605286    0.330544
 H    1.354768    3.153078    2.359633
 H    0.822831    1.464554    2.523323
 H   -2.936118    1.025423   -0.011135
 H   -1.208642    4.718107   -1.085164
 H    5.240284   -2.620773   -2.053381
 H    2.752675   -3.030823   -2.082971
