109 
5tw5_ligand_ani.xyz
 C   -6.733824   -1.729168    0.548842
 C   -7.838355   -0.818206    0.028794
 C   -5.015153   -2.434020    2.752636
 C   -7.235965   -2.659563    1.648064
 C   -3.700906    7.068597    0.431228
 C   -5.044373    7.212335   -0.282565
 C   -5.755500    5.878291   -0.528963
 C   -6.188116    5.160186    0.751533
 C   -7.036370    3.906323    0.506545
 C   -6.373816    2.817131   -0.344461
 C   -5.103655    2.235016    0.276570
 C   -4.442362    1.196400   -0.607219
 O   -4.940154    0.850055   -1.686415
 N   -3.293544    0.656545   -0.134237
 C   -2.644415   -0.568273   -0.641990
 C   -3.556251   -1.811408   -0.570096
 O   -3.791866   -2.285928    0.750641
 C   -4.578028   -1.506764    1.619913
 O   -5.672778   -0.877317    1.008576
 O   -7.598066   -0.301854   -1.259603
 O   -7.880621   -1.897702    2.643411
 C   -6.063156   -3.414470    2.243178
 O   -6.549477   -4.188073    3.323344
 O   -3.920012   -3.140342    3.300593
 C   -2.096516   -0.325283   -2.072114
 O   -3.070068   -0.584151   -3.062582
 C   -0.895848   -1.194076   -2.476828
 O   -1.290921   -2.534139   -2.684660
 C    0.268600   -1.177535   -1.502551
 C    1.511144   -1.845625   -2.089706
 C    2.699014   -1.841143   -1.129286
 C    3.945167   -2.549688   -1.673625
 C    4.515683   -1.962752   -2.972413
 C    4.876490   -0.471869   -2.909901
 C    5.850832   -0.085901   -1.790701
 C    7.183842   -0.831277   -1.838781
 C    8.167773   -0.372449   -0.764729
 C    9.499345   -1.121069   -0.823539
 C   10.495383   -0.731305    0.273464
 C   10.986706    0.721521    0.189898
 C   12.044526    1.043328    1.222410
 C   13.402768    0.964331    0.910198
 C   14.374965    1.216228    1.874698
 C   14.000807    1.553281    3.171655
 C   12.649738    1.634791    3.496314
 C   11.682859    1.379550    2.528912
 H   -6.366538   -2.356423   -0.279535
 H   -7.985820   -0.015563    0.765282
 H   -8.776207   -1.381552   -0.044281
 H   -5.457687   -1.840615    3.556743
 H   -7.938023   -3.384931    1.198900
 H   -3.820420    6.648956    1.435959
 H   -3.201230    8.037141    0.536432
 H   -3.030352    6.404897   -0.127635
 H   -5.701793    7.871576    0.301672
 H   -4.888066    7.714134   -1.245996
 H   -6.643319    6.053179   -1.152562
 H   -5.093522    5.225349   -1.115857
 H   -5.306485    4.900145    1.352098
 H   -6.770372    5.858999    1.367849
 H   -7.973915    4.205356    0.017203
 H   -7.324323    3.476312    1.476124
 H   -6.147295    3.207075   -1.343563
 H   -7.100052    2.007060   -0.506058
 H   -5.335014    1.765230    1.242003
 H   -4.367754    3.024367    0.485504
 H   -3.034996    0.917820    0.806438
 H   -1.809354   -0.734320    0.045419
 H   -4.498080   -1.600793   -1.083765
 H   -3.066600   -2.637122   -1.086001
 H   -3.952221   -0.706866    2.037978
 H   -6.703551    0.077273   -1.296816
 H   -7.986160   -2.496010    3.399048
 H   -5.612956   -4.061570    1.472137
 H   -5.769736   -4.419743    3.851071
 H   -3.381734   -3.401981    2.537265
 H   -1.774284    0.726087   -2.118572
 H   -3.859420   -0.059510   -2.831644
 H   -0.550916   -0.763760   -3.433057
 H   -2.082769   -2.482420   -3.241380
 H    0.489889   -0.133016   -1.236917
 H   -0.012614   -1.699717   -0.579269
 H    1.780626   -1.336415   -3.025966
 H    1.258607   -2.877476   -2.364643
 H    2.398028   -2.331367   -0.193365
 H    2.948935   -0.804737   -0.858516
 H    4.725660   -2.544250   -0.900512
 H    3.701393   -3.607333   -1.846259
 H    3.798111   -2.117958   -3.789207
 H    5.406041   -2.539351   -3.256820
 H    3.958444    0.122365   -2.804491
 H    5.314001   -0.179108   -3.874602
 H    6.044982    0.993758   -1.852521
 H    5.378343   -0.249332   -0.811062
 H    7.012289   -1.911471   -1.728327
 H    7.638214   -0.695864   -2.831905
 H    7.715144   -0.514919    0.228079
 H    8.338302    0.707925   -0.871997
 H    9.304032   -2.199756   -0.750610
 H    9.959527   -0.958151   -1.810183
 H   11.363807   -1.399345    0.220744
 H   10.038528   -0.897678    1.258826
 H   10.138223    1.406407    0.318973
 H   11.389549    0.906540   -0.814651
 H   13.709447    0.706383   -0.102142
 H   15.428007    1.150468    1.610472
 H   14.758014    1.751300    3.926356
 H   12.346826    1.898163    4.507006
 H   10.628902    1.443160    2.796031
