49 
5twz_ligand_xtb.xyz
 C    2.275166    3.141413   -0.128312
 O    1.584934    1.918344   -0.053505
 C    2.314618    0.734237   -0.019017
 C    3.684256    0.734865   -0.063050
 C    4.452253   -0.451150   -0.037326
 C    3.737856   -1.668427    0.029580
 C    2.377781   -1.671630    0.074178
 C    1.598852   -0.491429    0.057711
 C    0.169189   -0.693824    0.126925
 O   -0.358259   -1.802737    0.166557
 N   -0.615310    0.467856    0.141423
 C   -1.967482    0.576974    0.225010
 C   -2.565069    1.843578    0.109974
 C   -3.932563    1.980796    0.158118
 C   -4.766249    0.880356    0.334671
 C   -6.261670    1.049561    0.318201
 C   -6.911155    0.343185   -0.873078
 N   -7.104355   -1.113250   -0.616101
 C   -5.861371   -1.939160   -0.560856
 C   -5.025204   -1.613083    0.672183
 C   -4.180434   -0.379141    0.481590
 C   -2.810614   -0.524427    0.423273
 C    5.858708   -0.405574   -0.077359
 C    6.800299   -1.476174   -0.071167
 N    8.026270   -1.020787   -0.117837
 N    7.985342    0.337136   -0.154023
 C    6.733645    0.718724   -0.132862
 H    2.921077    3.292918    0.741552
 H    2.871993    3.211662   -1.042553
 H    1.504269    3.912794   -0.142123
 H    4.225433    1.664538   -0.120020
 H    4.283706   -2.598786    0.047731
 H    1.832275   -2.602751    0.128786
 H   -0.091260    1.330288    0.053427
 H   -1.938647    2.712223   -0.026347
 H   -4.371575    2.963418    0.055820
 H   -6.489951    2.112973    0.240682
 H   -6.717073    0.689788    1.246900
 H   -6.283175    0.457665   -1.757915
 H   -7.895727    0.770395   -1.078072
 H   -7.723183   -1.496958   -1.337198
 H   -7.570820   -1.204611    0.296319
 H   -5.277468   -1.753556   -1.463384
 H   -6.168399   -2.987266   -0.546640
 H   -4.356409   -2.453812    0.856119
 H   -5.676281   -1.517118    1.546533
 H   -2.353911   -1.495045    0.522480
 H    6.609249   -2.534685   -0.036390
 H    6.483989    1.766360   -0.154679
