20 
5txy_ligand_xtb.xyz
 C   -3.415805   -0.530405   -0.420649
 C   -3.087253    0.727531    0.058118
 C   -1.798051    0.995929    0.480061
 C   -0.830248    0.001494    0.417295
 C   -1.154586   -1.255172   -0.069835
 C   -2.450117   -1.519520   -0.481285
 C    0.582838    0.334649    0.850171
 C    1.227595    1.266593   -0.178591
 O    0.887331    2.364862   -0.509031
 N    2.281294    0.538132   -0.659545
 C    2.409179   -0.696188   -0.020930
 O    3.243815   -1.514324   -0.241144
 O    1.436082   -0.798075    0.889110
 H   -4.423680   -0.738398   -0.746592
 H   -3.837106    1.502447    0.104279
 H   -1.534921    1.976444    0.845822
 H   -0.401174   -2.026902   -0.114771
 H   -2.700957   -2.501662   -0.852716
 H    0.572862    0.803012    1.841589
 H    2.916770    0.848967   -1.378401
