28 
5ty1_ligand_dft.xyz
 C    0.343354   -1.282242   -0.174041
 C    1.689318   -1.591005    0.019199
 C    2.204729    0.774647   -0.116489
 C   -0.088381    0.022638   -0.339250
 C    2.617535   -0.553276    0.051087
 C    0.861214    1.060507   -0.310478
 C   -2.245862    0.627612    0.831618
 C   -3.282434   -1.118184   -0.269105
 C   -1.544279    0.366158   -0.508088
 C    4.439118   -2.028232    0.408601
 C    1.258557    3.399537   -0.430721
 N   -3.258413   -0.308133    0.861764
 O   -1.979887    1.447683    1.670350
 O   -4.041046   -2.013228   -0.504504
 O   -2.280607   -0.721149   -1.084354
 O    3.949677   -0.716326    0.234035
 O    0.366845    2.307683   -0.494407
 H   -0.382892   -2.087793   -0.216826
 H    1.987283   -2.625164    0.138542
 H    2.962977    1.546885   -0.089156
 H   -1.663906    1.243971   -1.149033
 H    4.236417   -2.652027   -0.471029
 H    5.516910   -1.929809    0.541144
 H    4.005969   -2.502629    1.298000
 H    0.650675    4.291599   -0.582425
 H    1.746730    3.454742    0.549347
 H    2.020949    3.339728   -1.217230
 H   -3.909291   -0.428833    1.623373
