20 
5ty8_ligand_dft.xyz
 C   -3.465328   -0.503423   -0.409146
 C   -3.103013    0.769445    0.026204
 C   -1.797462    1.024047    0.428681
 C   -0.845672    0.003481    0.392495
 C   -1.204794   -1.268857   -0.044339
 C   -2.515652   -1.518908   -0.442782
 C    0.572645    0.315644    0.817237
 C    1.273523    1.273232   -0.153787
 O    0.960051    2.399136   -0.441910
 N    2.346573    0.547349   -0.616245
 C    2.433032   -0.718005   -0.040844
 O    3.259042   -1.556195   -0.248647
 O    1.402830   -0.846960    0.827867
 H   -4.486682   -0.701577   -0.719647
 H   -3.839279    1.566724    0.053072
 H   -1.511115    2.019752    0.754135
 H   -0.465413   -2.061935   -0.061794
 H   -2.792069   -2.513434   -0.779653
 H    0.591669    0.753963    1.820637
 H    3.017831    0.877268   -1.293830
