28 
5ty9_ligand_xtb.xyz
 C    0.276417   -1.237827   -0.160787
 C    1.606374   -1.585218    0.007834
 C    2.190922    0.748696   -0.125275
 C   -0.109074    0.078453   -0.320827
 C    2.570810   -0.586109    0.030968
 C    0.862287    1.093395   -0.301467
 C   -2.211409    0.549337    0.917434
 C   -3.239674   -1.066895   -0.351232
 C   -1.563134    0.460691   -0.464017
 C    4.368275   -2.107268    0.368237
 C    1.340275    3.420105   -0.409926
 N   -3.173774   -0.426581    0.886107
 O   -1.940553    1.268160    1.834356
 O   -3.989993   -1.944383   -0.642889
 O   -2.321257   -0.524615   -1.152961
 O    3.902803   -0.789035    0.195821
 O    0.411510    2.361402   -0.471446
 H   -0.471684   -2.016202   -0.184673
 H    1.867657   -2.623914    0.121486
 H    2.973228    1.488418   -0.101890
 H   -1.637725    1.415422   -0.994937
 H    4.147724   -2.728044   -0.505547
 H    5.447242   -2.023944    0.487811
 H    3.939710   -2.570121    1.262371
 H    0.755177    4.328705   -0.540560
 H    1.844074    3.449712    0.560002
 H    2.084103    3.347357   -1.209119
 H   -3.785585   -0.657715    1.653622
