28 
5ty9_ligand_ani.xyz
 C    0.412063   -1.340744   -0.249360
 C    1.764001   -1.581533   -0.016328
 C    2.176559    0.809289   -0.094465
 C   -0.075294   -0.055534   -0.409933
 C    2.643018   -0.502076    0.061101
 C    0.825145    1.021662   -0.330806
 C   -2.229674    0.698261    0.704727
 C   -3.286950   -1.168569   -0.142788
 C   -1.537696    0.250900   -0.599071
 C    4.501679   -1.921842    0.441776
 C    1.114276    3.368663   -0.363332
 N   -3.259916   -0.203449    0.854216
 O   -1.945623    1.616284    1.426593
 O   -4.048621   -2.082336   -0.250634
 O   -2.271249   -0.904141   -1.004956
 O    3.977302   -0.621018    0.285949
 O    0.277411    2.244533   -0.518643
 H   -0.277398   -2.176592   -0.318098
 H    2.114165   -2.600851    0.101429
 H    2.892131    1.622242   -0.023452
 H   -1.672505    1.028864   -1.360297
 H    4.337794   -2.531324   -0.456676
 H    5.573145   -1.797230    0.604418
 H    4.058352   -2.432677    1.306685
 H    0.474019    4.239643   -0.508372
 H    1.553090    3.403262    0.641863
 H    1.916448    3.377756   -1.111992
 H   -3.906349   -0.206389    1.629372
