20 
5tya_ligand_xtb.xyz
 C    3.566203   -0.573477    0.590799
 C    3.428047    0.151944   -0.579722
 C    2.440767   -0.963847    1.297251
 C    2.169007    0.488436   -1.045467
 C    1.181601   -0.629564    0.834812
 C    1.039266    0.098877   -0.340251
 C   -1.019300    1.358777    0.203030
 C   -2.531287   -0.490872    0.210888
 C   -0.333536    0.479034   -0.829243
 N   -2.126044    0.728675    0.712078
 O   -0.637199    2.441377    0.549304
 O   -3.483247   -1.110705    0.576042
 S   -1.413949   -0.978318   -1.072162
 H    4.548950   -0.835648    0.952365
 H    4.302141    0.457564   -1.134604
 H    2.542539   -1.529327    2.211123
 H    2.064336    1.057679   -1.957087
 H    0.305966   -0.943925    1.385287
 H   -0.260959    1.013008   -1.779183
 H   -2.678531    1.171778    1.436791
