90 
5tyr_ligand_ani.xyz
 C    7.528180   -0.544655   -0.201571
 C    5.463192   -0.528193   -0.967254
 C    4.291050   -1.016401   -1.554431
 C    3.209087   -0.168092   -1.715672
 C    3.288266    1.164989   -1.292625
 C    4.447107    1.679856   -0.729552
 C   -7.951112   -2.333127   -1.539720
 N    6.615181   -1.275713   -0.741989
 N    8.765589   -0.994547    0.161063
 C   -7.563422    2.359635    0.117045
 C    0.410136   -2.560939    0.122831
 C   -0.575338   -2.016318    0.950157
 C   -0.315126   -1.916692    2.320092
 C   -8.483823    0.176672   -0.922698
 C   -6.478761   -2.529204    0.198435
 C    1.406405    2.905627    1.074233
 C    0.219690    3.568930    1.778950
 C   -0.477454    4.578728    0.863560
 C    0.692155    4.233995    3.072532
 C    0.297573    0.848292    0.186452
 C   -1.163157    0.881454   -0.282224
 C   -2.123553    0.003933    0.524940
 C   -4.534778    0.059097    0.869320
 C    9.955179   -3.139166    0.698363
 C   -1.880262   -1.512679    0.379948
 C    1.635282   -2.967694    0.646619
 C    0.905727   -2.327984    2.846353
 C    1.888415   -2.853519    2.010347
 C    8.551486   -3.497968    0.315368
 C    5.521248    0.816485   -0.565395
 C   -6.899584   -0.001241    0.906414
 C   -7.436025   -1.424745    0.653962
 C   -8.456404   -1.300485   -0.521780
 C    9.205695   -2.286453   -0.282889
 C   -7.995045    0.915230    0.338421
 N    1.005179    2.103549   -0.084400
 N   -3.460977    0.356387    0.083960
 O   -7.140320   -1.707844   -2.507737
 O    2.367245    3.593926   -1.590260
 O   -1.308352    0.500127   -1.630280
 O   -7.221264   -3.263850   -0.778798
 O   -4.480123   -0.316063    2.023071
 O   -5.683350    0.239867    0.168071
 O    1.058503    1.650563   -2.546418
 S    7.098451    1.149242    0.115992
 S    1.887606    2.229219   -1.489156
 H    4.248500   -2.052747   -1.875950
 H    2.297612   -0.525402   -2.187535
 H    4.502285    2.726480   -0.450008
 H   -8.756648   -2.886822   -2.039964
 H    9.482160   -0.297574    0.302854
 H   -8.400940    2.961585   -0.254634
 H   -6.750429    2.413486   -0.612410
 H   -7.212659    2.814797    1.050241
 H    0.222618   -2.633338   -0.947142
 H   -1.076844   -1.508539    2.984876
 H   -7.794207    0.358808   -1.749360
 H   -9.480945    0.505986   -1.236985
 H   -5.570151   -2.135860   -0.263600
 H   -6.192168   -3.219399    0.998808
 H    1.942700    2.256246    1.781701
 H    2.106973    3.671921    0.729119
 H   -0.504393    2.784797    2.046388
 H   -0.784165    4.123789   -0.085566
 H    0.193924    5.414672    0.626540
 H   -1.367573    4.993638    1.348735
 H   -0.144531    4.701301    3.603336
 H    1.429260    5.017403    2.855054
 H    1.159837    3.509398    3.749255
 H    0.330403    0.687083    1.266862
 H    0.815304    0.010956   -0.289141
 H   -1.527012    1.916622   -0.150359
 H   -2.066593    0.269773    1.586608
 H   10.108611   -2.729540    1.692216
 H   10.773427   -3.749856    0.327209
 H   -1.957866   -1.774796   -0.681099
 H   -2.709710   -2.000572    0.906626
 H    2.389715   -3.388879   -0.013868
 H    1.089902   -2.237415    3.913930
 H    2.841751   -3.173655    2.421842
 H    7.770845   -3.297392    1.042589
 H    8.375335   -4.356480   -0.326771
 H   -6.690827    0.189947    1.962818
 H   -7.969193   -1.749340    1.553647
 H   -9.444194   -1.622905   -0.178328
 H    9.499292   -2.351721   -1.331293
 H   -8.810622    0.905491    1.077888
 H   -3.617299    0.383115   -0.914372
 H   -6.642344   -2.406214   -2.954025
 H   -0.591722    0.920021   -2.138901
