51 
5tz3_ligand_ani.xyz
 C    3.404557    2.608960   -0.307421
 C    2.670006    3.250477    0.875790
 C    1.150593    3.244068    0.678564
 N    2.753980   -3.117538    0.674132
 C    1.583489   -2.469907    0.658757
 C    4.934530    0.038806   -0.535634
 C   -2.544385   -0.122102    0.134390
 C   -3.645775    0.691996    0.047919
 C   -4.944824    0.128634   -0.061888
 C   -3.952847   -2.096948    0.023266
 C   -6.096797    0.955796   -0.160332
 C   -7.508991   -1.000389   -0.296290
 C   -7.345850    0.407106   -0.274840
 C   -6.416859   -1.822370   -0.199896
 C   -2.711203   -1.536477    0.128393
 C   -5.111392   -1.279532   -0.079566
 C    3.618001   -2.184880    0.259690
 C    3.557092    0.143450   -0.383480
 C    5.573589   -1.195583   -0.293652
 C   -0.810526    1.678646    0.183497
 C    1.437913    1.363940   -0.921652
 C    0.697549    1.823985    0.343613
 C    7.063899   -1.304653   -0.476069
 N    1.585071   -1.202395    0.274402
 N    4.942265   -2.288220    0.101565
 N    2.921683   -1.015179    0.001431
 N    2.856002    1.287119   -0.609925
 N   -1.231284    0.370281    0.231001
 O   -1.543017    2.639491    0.018026
 H    4.473455    2.532738   -0.096073
 H    3.286362    3.239919   -1.199733
 H    3.038651    4.272053    1.025526
 H    2.914481    2.687278    1.785876
 H    0.850858    3.918752   -0.134086
 H    0.643189    3.601802    1.580322
 H    0.664228   -2.966258    0.949712
 H    5.505928    0.890496   -0.885079
 H   -3.521742    1.767327    0.057078
 H   -4.071798   -3.178138    0.015285
 H   -5.964276    2.036252   -0.143518
 H   -8.506797   -1.421161   -0.389855
 H   -8.221440    1.046752   -0.350863
 H   -6.535086   -2.904080   -0.215623
 H   -1.833636   -2.174312    0.205800
 H    1.315611    2.128792   -1.702013
 H    1.070898    0.423663   -1.327532
 H    1.007598    1.160810    1.158542
 H    7.297527   -2.065409   -1.227099
 H    7.536245   -1.609747    0.462648
 H    7.487263   -0.349565   -0.793046
 H   -0.498016   -0.330507    0.312332
