43 
5tzh_ligand_ani.xyz
 N   -5.366840    0.908335   -0.230415
 C   -4.806635   -0.261302   -0.575584
 C   -2.614618    0.401615    0.182874
 C   -4.328077   -2.178871   -1.250136
 C   -5.191641    3.123594    0.693220
 C    0.565872   -1.391300    1.418779
 C    1.793967    0.778373   -0.722403
 C    3.979431   -0.395834   -1.268470
 C    5.358363   -0.505846   -1.128715
 C    5.342424    1.391869    0.389822
 C    6.011726    0.385792   -0.291178
 C    3.968934    1.501611    0.222905
 C    3.276564    0.596527   -0.582472
 C   -3.181874    1.590657    0.533701
 C   -4.572779    1.807670    0.308107
 C   -0.923599   -1.171194    1.261320
 C   -0.416090   -0.168380   -0.985908
 C    1.300495   -1.516056    0.090428
 C   -1.161662    0.051846    0.353834
 N   -5.365078   -1.331829   -1.138230
 N   -3.149886   -1.756476   -0.812021
 N   -3.459469   -0.513164   -0.371547
 N    1.012145   -0.362149   -0.749128
 O    1.308142    1.895601   -0.808110
 F    7.342435    0.275070   -0.141174
 F    0.803527   -2.505615    2.170285
 F    1.108106   -0.329459    2.101371
 H   -4.428206   -3.168845   -1.676464
 H   -5.993397    2.964489    1.420834
 H   -5.633403    3.603028   -0.185815
 H   -4.449207    3.796790    1.126898
 H    3.444205   -1.081332   -1.919932
 H    5.925879   -1.272626   -1.643792
 H    5.899059    2.072304    1.026490
 H    3.411313    2.290024    0.720203
 H   -2.576911    2.372961    0.982040
 H   -1.370646   -2.065890    0.817698
 H   -1.370504   -1.022711    2.249767
 H   -0.527520    0.695687   -1.642151
 H   -0.811325   -1.055561   -1.490043
 H    2.369077   -1.602195    0.293515
 H    0.961486   -2.428658   -0.414319
 H   -0.702566    0.920116    0.834261
