43 
5tzh_ligand_dft.xyz
 N   -5.376618    0.859820   -0.256482
 C   -4.792447   -0.305205   -0.572898
 C   -2.610069    0.411238    0.169145
 C   -4.289151   -2.231921   -1.203141
 C   -5.258473    3.096752    0.620233
 C    0.577497   -1.340382    1.428551
 C    1.789201    0.785741   -0.671751
 C    3.947794   -0.407180   -1.245974
 C    5.328764   -0.524312   -1.147199
 C    5.361692    1.361284    0.384693
 C    6.010930    0.359961   -0.324143
 C    3.983508    1.474969    0.263450
 C    3.265668    0.583584   -0.535602
 C   -3.210621    1.599159    0.488352
 C   -4.602801    1.791788    0.262327
 C   -0.906422   -1.053904    1.327413
 C   -0.427467   -0.127466   -0.979809
 C    1.258547   -1.515652    0.074174
 C   -1.150560    0.122716    0.362041
 N   -5.335849   -1.394290   -1.107422
 N   -3.111965   -1.783880   -0.778288
 N   -3.436302   -0.532489   -0.367282
 N    0.995950   -0.349956   -0.756460
 O    1.314503    1.906385   -0.765940
 F    7.340780    0.247506   -0.215744
 F    0.789229   -2.457782    2.178034
 F    1.196162   -0.300543    2.077120
 H   -4.377274   -3.231403   -1.607515
 H   -6.005081    2.933842    1.403816
 H   -5.783350    3.498756   -0.250760
 H   -4.534138    3.835123    0.972142
 H    3.396139   -1.080495   -1.895590
 H    5.878146   -1.279024   -1.698507
 H    5.937143    2.034015    1.010569
 H    3.448963    2.259297    0.788652
 H   -2.610591    2.395915    0.911741
 H   -1.402966   -1.953939    0.954834
 H   -1.291039   -0.831707    2.327225
 H   -0.541863    0.735941   -1.634464
 H   -0.842270   -1.013225   -1.469338
 H    2.326083   -1.653030    0.241240
 H    0.858919   -2.411026   -0.412717
 H   -0.708426    1.025799    0.793871
