75 
5tzy_ligand_xtb.xyz
 O    1.349720   -0.387670   -0.848518
 C   -3.543553   -2.322690   -0.444336
 C   -3.812124   -1.199614    0.580929
 C   -2.081964    0.631454    0.426197
 C   -3.299007    0.109961    0.028683
 C   -4.038650    0.811383   -0.918410
 C   -3.566388    1.996901   -1.445743
 C   -2.337845    2.520643   -1.062757
 O   -1.118940   -2.083914   -0.216147
 O   -0.351858    2.213839    0.312381
 C   -2.087091   -2.482475   -0.820187
 C   -4.064134   -3.680660    0.043833
 C   -3.252158   -1.532419    1.949837
 C   -4.168223   -2.038588    3.023202
 C   -3.606055   -0.654040    3.113329
 C   -1.820061    3.814958   -1.627369
 C   -0.320379    3.952979   -1.368285
 C   -0.041794    3.583884    0.089855
 C    1.407283    3.843837    0.545055
 C    1.578221    3.608503    2.051385
 C    1.434810    2.132426    2.443547
 C    3.018038    1.879131    0.640628
 C    2.457901    3.011201   -0.216596
 C    2.208189   -0.147647    1.846068
 C    2.926706   -0.998925    0.823097
 C    2.462940   -1.172097   -0.485947
 C    3.102173   -2.034408   -1.361649
 C    4.212367   -2.750491   -0.947279
 C    4.672714   -2.580346    0.344442
 C    4.043675   -1.716514    1.225694
 C    0.911956   -0.401590   -2.099193
 C    0.939246   -0.882832    2.269755
 F    0.495154   -1.589998   -2.538180
 F   -0.101759    0.442600   -2.200345
 F    1.844672    0.015523   -2.976450
 F    5.747059   -3.251640    0.760312
 N    1.899870    1.229466    1.357083
 C   -1.603226    1.809968   -0.123970
 O   -1.979163   -3.167866   -1.954766
 H   -4.064182   -2.075108   -1.375263
 H   -4.901111   -1.115714    0.670222
 H   -1.490398    0.125463    1.166988
 H   -4.996623    0.431219   -1.240116
 H   -4.155283    2.533639   -2.174158
 H   -5.122186   -3.603578    0.278096
 H   -3.534604   -4.000654    0.936803
 H   -3.934085   -4.430647   -0.731797
 H   -2.253014   -1.946908    1.929564
 H   -3.798648   -2.788405    3.705842
 H   -5.217234   -2.144569    2.794762
 H   -2.854994   -0.452672    3.862441
 H   -4.271126    0.176878    2.934256
 H   -2.355707    4.648886   -1.162931
 H   -2.020956    3.856472   -2.698544
 H    0.217417    3.272701   -2.030354
 H    0.014394    4.970128   -1.568239
 H   -0.703079    4.192861    0.726891
 H    1.586784    4.904786    0.354541
 H    2.558747    3.984746    2.345637
 H    0.836448    4.185744    2.602705
 H    0.389352    1.905677    2.647145
 H    2.023131    1.934718    3.342442
 H    3.527418    1.152637    0.007513
 H    3.735891    2.243078    1.378327
 H    2.011987    2.587570   -1.115975
 H    3.284299    3.645501   -0.534936
 H    2.874037   -0.028422    2.708767
 H    2.757311   -2.169676   -2.373267
 H    4.713784   -3.428388   -1.617977
 H    4.432244   -1.619100    2.227215
 H    0.302827   -1.077894    1.409595
 H    0.385018   -0.331911    3.023877
 H    1.217193   -1.843030    2.697456
 H    1.094899    1.187294    0.692775
 H   -1.054662   -3.304403   -2.214407
