28 
5u0d_ligand_ani.xyz
 C    0.510092   -1.263494   -0.233501
 C    1.813643   -1.697071   -0.004462
 C    2.567339    0.608116   -0.102597
 C    0.213507    0.077651   -0.397582
 C    2.839541   -0.755574    0.061986
 C    1.260031    1.013392   -0.334638
 C   -1.804999    1.168699    0.700096
 C   -3.112964   -0.560177   -0.070882
 C   -1.190459    0.589162   -0.584245
 C    4.477816   -2.424061    0.448340
 C    1.890668    3.291050   -0.404932
 N   -2.949191    0.411927    0.878120
 O   -1.408436    2.061258    1.398290
 O   -2.090335   -0.469070   -0.942182
 O    4.144301   -1.063232    0.281649
 O    0.895063    2.300879   -0.534723
 S   -4.307917   -1.663342   -0.165436
 H   -0.295676   -1.988475   -0.297128
 H    2.012528   -2.755865    0.117000
 H    3.394968    1.307661   -0.044574
 H   -1.221519    1.345728   -1.378749
 H    3.966069   -2.859306    1.316742
 H    4.229152   -3.010881   -0.445750
 H    5.556067   -2.451892    0.611782
 H    2.678354    3.169366   -1.159163
 H    2.339771    3.276189    0.596197
 H    1.385558    4.245148   -0.560582
 H   -3.584295    0.527468    1.654600
