28 
5u0d_ligand_dft.xyz
 C    0.449125   -1.204018   -0.119961
 C    1.742044   -1.692735    0.063856
 C    2.582373    0.572183   -0.155207
 C    0.204300    0.143354   -0.322941
 C    2.807239   -0.795086    0.049756
 C    1.289623    1.038530   -0.341439
 C   -1.815038    1.115189    0.849312
 C   -3.097791   -0.531585   -0.123026
 C   -1.189075    0.689708   -0.481269
 C    4.409751   -2.501564    0.423370
 C    2.002023    3.298210   -0.517442
 N   -2.944316    0.317524    0.946364
 O   -1.433808    1.932257    1.643420
 O   -2.090981   -0.314408   -0.978005
 O    4.105703   -1.138419    0.220368
 O    0.969980    2.335821   -0.559550
 S   -4.285186   -1.631192   -0.348078
 H   -0.382881   -1.901438   -0.124054
 H    1.894302   -2.754257    0.212117
 H    3.441229    1.231481   -0.162766
 H   -1.203810    1.533766   -1.176264
 H    3.931911   -2.888633    1.331904
 H    4.104800   -3.112288   -0.435684
 H    5.492986   -2.554016    0.536506
 H    2.743197    3.124937   -1.307422
 H    2.500208    3.299152    0.459031
 H    1.518365    4.261707   -0.678139
 H   -3.581723    0.320873    1.729555
