23 
5u0e_ligand_ani.xyz
 C   -3.371361   -1.390623   -0.844879
 C   -2.983721   -1.614497    0.472176
 C   -2.953803   -0.236215   -1.500124
 C   -2.186740   -0.682616    1.130046
 C   -2.154065    0.692644   -0.840782
 C   -1.765029    0.480545    0.484215
 C    1.036160    1.597302   -0.455202
 C    2.127036   -0.501579   -0.179370
 C    0.628685    1.296447    0.982676
 C   -0.887163    1.475229    1.212368
 N    1.875573    0.608896   -0.938948
 O    0.689119    2.570604   -1.081919
 S    3.057661   -1.768400   -0.629020
 S    1.283926   -0.367463    1.355928
 H   -3.996432   -2.115467   -1.360934
 H   -3.304697   -2.514249    0.991688
 H   -3.253052   -0.056893   -2.529832
 H   -1.883730   -0.862658    2.160098
 H   -1.815522    1.587507   -1.359460
 H    1.145400    2.019977    1.623857
 H   -1.119550    2.494675    0.888308
 H   -1.082085    1.421150    2.289935
 H    2.262310    0.672840   -1.872945
