31 
5u0f_ligand_ani.xyz
 C    1.508739   -0.901014    1.264698
 C    2.764404   -1.368104    0.873832
 C    3.033646    0.625737   -0.473697
 C    0.988812    0.302166    0.816691
 C    3.526796   -0.594584    0.002558
 C    1.775628    1.059757   -0.070944
 C   -2.759612    1.268998    0.572732
 C   -3.437989   -0.837068   -0.315538
 C   -1.405552    0.747957    0.105805
 C    5.304110   -2.160347    0.009293
 C    1.980993    3.033361   -1.366578
 C   -0.366518    0.798054    1.238914
 N   -3.760618    0.361699    0.261448
 O   -2.944716    2.323002    1.128916
 O    4.763347   -0.938410   -0.444694
 O    1.221695    2.227033   -0.492023
 S   -4.497184   -2.014914   -0.713389
 S   -1.703654   -0.921919   -0.559836
 H    0.912463   -1.505755    1.945586
 H    3.126242   -2.316932    1.252031
 H    3.654815    1.200742   -1.152448
 H   -1.050090    1.389702   -0.704685
 H    5.414174   -2.169585    1.101774
 H    4.681895   -3.012333   -0.295068
 H    6.287658   -2.245790   -0.454691
 H    2.924963    3.348353   -0.904274
 H    1.369192    3.912642   -1.572086
 H    2.194119    2.511118   -2.307926
 H   -0.728127    0.199089    2.083139
 H   -0.327629    1.839808    1.571810
 H   -4.725285    0.563902    0.494126
