36 
5u14_ligand_ani.xyz
 C    1.272779    1.617895    0.538272
 C    3.476090    0.005794    0.024153
 C   -2.705946   -0.476317   -0.109084
 C   -2.343091   -1.904133   -0.028733
 N   -5.676545   -3.177851    0.247873
 C   -4.680761   -2.384011    0.139570
 N   -5.021810   -1.009193    0.075293
 C   -4.052229   -0.088262   -0.041356
 N   -4.163672    1.255816   -0.102567
 C   -2.872396    1.621503   -0.203441
 S   -2.376656    3.304778   -0.316669
 C   -0.617534    2.959697   -0.499127
 C    0.053802    2.473130    0.797782
 C    2.563514    2.140401    0.612686
 C    3.671081    1.341133    0.354596
 S    4.880833   -1.031531   -0.279143
 N    5.128025   -1.795109    1.188071
 O    4.479544   -2.059314   -1.226658
 O    6.027959   -0.167663   -0.509570
 C    2.197650   -0.536757   -0.067587
 C    1.099354    0.267824    0.193235
 N   -1.959568    0.639245   -0.218004
 O   -1.162357   -2.258033   -0.067241
 N   -3.368659   -2.769395    0.087066
 H   -5.322785   -4.130647    0.285899
 H   -6.000523   -0.771989    0.130949
 H   -0.158686    3.882534   -0.861530
 H   -0.533149    2.207921   -1.284760
 H    0.309517    3.340457    1.418624
 H   -0.666099    1.872632    1.362224
 H    2.704707    3.185612    0.878795
 H    4.679553    1.741481    0.404635
 H    5.024942   -2.798734    1.080196
 H    6.034042   -1.540458    1.567125
 H    2.067315   -1.575823   -0.353614
 H    0.094892   -0.136807    0.122275
