43 
5u28_ligand_ani.xyz
 C   -4.370243   -1.673482   -0.414893
 C   -1.647972    2.514765    0.041281
 C    0.735873    3.094743    0.137544
 C    1.653382    0.738874    0.243556
 C    3.753440   -1.107486    0.460983
 C    5.757703   -1.923489   -0.403446
 C    2.854939    0.942576   -0.438888
 O   -3.856006    3.362134   -0.010599
 C   -3.106972    2.396153   -0.019538
 C   -3.531295    1.018253   -0.101047
 C   -2.639172   -0.013601   -0.097700
 N   -2.964267   -1.340924   -0.219085
 C   -2.223711   -2.298710    0.599385
 C   -2.479223   -3.709628    0.097166
 O   -3.860241   -4.000314    0.048270
 C   -4.510804   -3.125811   -0.847836
 O   -1.293535    0.157133    0.052066
 C   -0.823817    1.428116    0.080734
 S   -0.736484    3.978321    0.079885
 C    0.570478    1.737787    0.147836
 C    1.520713   -0.408100    1.037246
 C    2.562734   -1.313471    1.149849
 O    4.756181   -2.021199    0.601354
 C    6.158311   -0.475580   -0.585224
 O    5.042574    0.276630   -1.043396
 C    3.896960    0.034016   -0.339823
 H   -4.788575   -1.039007   -1.203414
 H   -4.953840   -1.511496    0.506655
 H    1.674487    3.628277    0.203225
 H    5.379686   -2.328391   -1.352305
 H    6.597387   -2.530232   -0.056815
 H    3.000886    1.808658   -1.078948
 H   -4.600061    0.841705   -0.145166
 H   -2.529696   -2.218967    1.655159
 H   -1.153615   -2.082308    0.546808
 H   -2.024139   -4.441825    0.771728
 H   -2.032695   -3.834331   -0.901913
 H   -4.103339   -3.252384   -1.863128
 H   -5.567105   -3.411463   -0.863408
 H    0.603244   -0.589581    1.586924
 H    2.474511   -2.201413    1.768252
 H    6.931653   -0.368190   -1.349250
 H    6.525112   -0.066336    0.366355
