49 
5u2e_ligand_ani.xyz
 C    2.013165   -1.752431    0.576793
 C   -0.527942   -3.336070   -0.084250
 C   -2.713554   -2.229641   -0.032838
 C   -4.115687   -1.810355   -0.002578
 C   -3.097825    3.946220   -0.910380
 C   -2.289122    4.051271    1.266833
 C    7.916314   -0.134810    1.068954
 C    7.019921    0.629598    0.121166
 O    5.709270    0.055327    0.244422
 C    4.752662    0.625170   -0.505045
 O    4.954441    1.578477   -1.224546
 C    3.434684   -0.049231   -0.353243
 C    2.359695    0.434563   -1.098667
 C    1.117437   -0.169884   -1.005655
 C    0.927543   -1.279630   -0.173630
 C    3.254133   -1.141960    0.495469
 C   -0.375616   -1.976605   -0.101490
 S   -2.158725   -3.864386   -0.049536
 C   -1.662876   -1.344668   -0.053596
 O   -1.841171   -0.001572   -0.038034
 C   -3.083253    0.397361    0.555511
 C   -4.262306   -0.302328   -0.112687
 O   -5.050144   -2.580292    0.075426
 N   -3.142994    1.870740    0.458297
 C   -2.994749    2.429005   -0.953252
 O   -2.139031    4.534798   -0.053522
 C   -2.118365    2.543606    1.347149
 H    1.883445   -2.598746    1.247548
 H    0.270335   -4.065877   -0.132150
 H   -2.929089    4.365828   -1.905400
 H   -4.114437    4.229817   -0.586825
 H   -3.285990    4.318801    1.657309
 H   -1.534983    4.554370    1.876928
 H    7.932406   -1.196758    0.807542
 H    7.561530   -0.032615    2.098460
 H    8.938983    0.250688    1.015070
 H    7.348140    0.543192   -0.918970
 H    6.966303    1.694245    0.366107
 H    2.524266    1.288164   -1.748271
 H    0.290995    0.205661   -1.599600
 H    4.090791   -1.509592    1.079823
 H   -3.046610    0.122929    1.615082
 H   -5.208946    0.001097    0.342953
 H   -4.284130   -0.047102   -1.178880
 H   -4.077411    2.154100    0.809231
 H   -3.779408    2.019952   -1.592781
 H   -2.025004    2.120666   -1.344553
 H   -2.249847    2.192274    2.375274
 H   -1.123246    2.254913    1.003244
