49 
5u2e_ligand_dft.xyz
 C    1.824110   -1.994084    0.400077
 C   -0.881037   -3.371824   -0.223194
 C   -2.942049   -2.067062    0.023628
 C   -4.276260   -1.497527    0.126742
 C   -2.566153    4.113254   -0.861332
 C   -1.431856    4.044020    1.157678
 C    7.792117   -0.528243    1.002423
 C    6.877297    0.378818    0.209801
 O    5.568263   -0.225709    0.204806
 C    4.614921    0.447268   -0.439955
 O    4.787798    1.501522   -1.008802
 C    3.288777   -0.242729   -0.375679
 C    2.225711    0.333212   -1.071593
 C    0.969785   -0.252992   -1.034179
 C    0.752025   -1.419441   -0.289623
 C    3.086208   -1.415340    0.351640
 C   -0.591979   -2.026857   -0.217786
 S   -2.545915   -3.746054   -0.056093
 C   -1.803873   -1.301176   -0.078589
 O   -1.829004    0.067983   -0.018949
 C   -2.962795    0.571026    0.619582
 C   -4.262015    0.046627    0.034569
 O   -5.311364   -2.112032    0.225511
 N   -2.795709    2.070029    0.519866
 C   -2.772995    2.602126   -0.894141
 O   -1.384582    4.449124   -0.185270
 C   -1.557337    2.529439    1.262190
 H    1.665357   -2.889232    0.994336
 H   -0.162231   -4.174586   -0.327821
 H   -2.472276    4.477518   -1.885702
 H   -3.437216    4.608805   -0.400711
 H   -2.263099    4.539275    1.686983
 H   -0.497180    4.354429    1.627329
 H    7.866772   -1.514115    0.535238
 H    7.427175   -0.652132    2.026006
 H    8.793729   -0.090734    1.045044
 H    7.208748    0.499592   -0.825202
 H    6.796481    1.374454    0.655316
 H    2.408597    1.235814   -1.645286
 H    0.157370    0.180789   -1.609160
 H    3.915026   -1.863916    0.887293
 H   -2.916876    0.344234    1.694654
 H   -5.134392    0.432623    0.568821
 H   -4.353313    0.297282   -1.028062
 H   -3.609880    2.481644    0.989994
 H   -3.718610    2.344637   -1.372949
 H   -1.948512    2.098593   -1.399548
 H   -1.653104    2.198353    2.299089
 H   -0.712458    2.025133    0.790866
