45 
5u2f_ligand_xtb.xyz
 C   -3.822592    1.047943    0.592399
 C    1.017611    1.482212   -0.060780
 C    2.530206   -0.200233    0.500477
 C    3.651744   -2.359050    1.140919
 C    2.608369   -2.182070   -1.038791
 O   -7.414071   -1.254408    0.152269
 N   -6.266922   -0.464938    0.170569
 C   -5.079474   -1.078957    0.014877
 O   -5.012744   -2.297744   -0.046561
 C   -3.884562   -0.196027   -0.029092
 C   -2.759437   -0.686947   -0.685856
 C   -1.594410    0.049258   -0.725625
 C   -1.523835    1.290723   -0.096079
 C   -2.652645    1.781856    0.559003
 C   -0.275007    2.052266   -0.101225
 C   -0.178911    3.426007   -0.127934
 S    1.413798    4.025983   -0.095836
 C    2.041335    2.411957   -0.051569
 O    1.250657    0.127772    0.026573
 C    3.640207    0.535041   -0.225656
 C    3.440238    2.067390   -0.056366
 O    4.374598    2.818858    0.011737
 N    2.573276   -1.699435    0.366819
 C    3.460080   -3.880057    1.050233
 O    3.468070   -4.305451   -0.284806
 C    2.442681   -3.705983   -1.031518
 H   -4.673367    1.433608    1.132545
 H    2.593344    0.022742    1.581428
 H    4.612111   -2.084195    0.701152
 H    3.619068   -2.031387    2.180583
 H    3.577965   -1.929642   -1.470587
 H    1.807743   -1.702488   -1.602297
 H   -7.065905   -2.169070    0.093446
 H   -6.474016    0.508773    0.024050
 H   -2.823367   -1.655201   -1.158868
 H   -0.736036   -0.327941   -1.259701
 H   -2.603334    2.732986    1.066206
 H   -0.999036    4.115181   -0.178951
 H    4.624307    0.276858    0.162191
 H    3.610930    0.348238   -1.301178
 H    1.668428   -2.012400    0.750151
 H    4.288907   -4.390881    1.542349
 H    2.519898   -4.168261    1.545948
 H    2.530831   -4.097704   -2.045779
 H    1.454611   -3.978524   -0.629238
