29 
5u49_ligand_ani.xyz
 C   -4.759066   -0.234436   -0.056247
 C   -3.934782   -1.255412    0.400931
 C   -2.546046   -1.126456    0.380797
 C   -1.971231    0.046125   -0.113647
 C   -2.793975    1.080767   -0.566566
 C   -4.179857    0.935619   -0.538150
 O   -5.029007    1.907204   -0.970201
 C   -0.514753    0.248576   -0.183612
 C    0.421464   -0.685613    0.016047
 C    1.886245   -0.522627   -0.039307
 C    2.631790   -1.627015   -0.487802
 C    4.003235   -1.599453   -0.640828
 C    4.695974   -0.432238   -0.320196
 C    4.006741    0.674507    0.162163
 C    2.624253    0.619657    0.306417
Cl    1.876541    2.034328    1.000695
 O    6.042637   -0.435028   -0.488298
 O   -4.551430   -2.377138    0.865272
 H   -5.837198   -0.346606   -0.036174
 H   -1.925647   -1.930743    0.769636
 H   -2.349788    1.998975   -0.948105
 H   -4.511636    2.663288   -1.274769
 H   -0.214447    1.255673   -0.460700
 H    0.117651   -1.721246    0.164661
 H    2.094384   -2.536331   -0.744116
 H    4.554442   -2.461634   -1.003047
 H    4.537117    1.584140    0.436240
 H    6.394505    0.427933   -0.236084
 H   -3.878129   -3.009331    1.146444
