30 
5u4d_ligand_xtb.xyz
 C   -4.291286    1.210993   -0.384365
 C   -3.235235    2.044413   -0.704410
 C   -1.935585    1.576660   -0.657969
 C   -1.661498    0.254841   -0.295181
 C   -2.736126   -0.576726    0.028297
 C   -4.042754   -0.105710   -0.002194
 C   -5.215655   -0.964537    0.332898
 C   -0.316893   -0.291392   -0.249522
 C    0.816000    0.424335   -0.237634
 C    2.157578   -0.123028   -0.190401
 C    2.445523   -1.437810   -0.575648
 C    3.721474   -1.949868   -0.539322
 C    4.780450   -1.152519   -0.107915
 C    4.529429    0.159850    0.274681
 C    3.240805    0.659442    0.227008
 O   -4.983243   -1.991367    1.173899
 O   -6.317404   -0.765388   -0.098545
 O    6.023404   -1.685825   -0.080523
Cl    3.004452    2.297658    0.733083
 H   -5.312886    1.555452   -0.422351
 H   -3.427186    3.065257   -0.998866
 H   -1.125635    2.235915   -0.928018
 H   -2.525573   -1.610759    0.275151
 H   -0.266645   -1.370541   -0.183731
 H    0.762938    1.503452   -0.227638
 H    1.642807   -2.063337   -0.932141
 H    3.926979   -2.962981   -0.844340
 H    5.337627    0.794710    0.610085
 H   -4.069631   -2.007334    1.488711
 H    6.662101   -1.033067    0.232154
