30 
5u4d_ligand_ani.xyz
 C   -4.311525    1.202615   -0.442900
 C   -3.247848    2.030635   -0.780644
 C   -1.941705    1.561220   -0.697678
 C   -1.681471    0.250865   -0.280271
 C   -2.761173   -0.571368    0.057429
 C   -4.070547   -0.099433   -0.002748
 C   -5.267038   -0.946812    0.337612
 C   -0.314900   -0.292346   -0.179464
 C    0.814735    0.427499   -0.136487
 C    2.180214   -0.114692   -0.149608
 C    2.449402   -1.429567   -0.560534
 C    3.726255   -1.956372   -0.558920
 C    4.795812   -1.165413   -0.140212
 C    4.575827    0.149975    0.258462
 C    3.282958    0.656584    0.241826
 O   -5.058338   -1.986161    1.175141
 O   -6.366625   -0.732087   -0.098813
 O    6.030908   -1.727935   -0.146723
Cl    3.076080    2.311189    0.746998
 H   -5.340296    1.541900   -0.515228
 H   -3.435116    3.047493   -1.114236
 H   -1.119378    2.211790   -0.986107
 H   -2.558068   -1.605086    0.338570
 H   -0.265275   -1.378202   -0.100906
 H    0.747484    1.508590   -0.056644
 H    1.631763   -2.051605   -0.914270
 H    3.915624   -2.976832   -0.875939
 H    5.400418    0.783306    0.579855
 H   -4.167903   -1.941637    1.548684
 H    6.675857   -1.080799    0.165244
