47 
5u5h_ligand_dft.xyz
 C    4.410766    0.930430   -0.174879
 C    3.146094    1.507426   -0.334352
 C    2.036984    0.688587   -0.546069
 C   -0.825194   -2.989286    0.437870
 C   -1.986350   -2.259667   -0.261464
 C   -2.124441   -0.841770    0.211367
 C   -3.022864    0.153864   -0.049927
 C   -1.528140    1.036811    1.199134
 C   -4.262821    0.095010   -0.894726
 C   -4.135552    1.023411   -2.109892
 C   -5.506014    0.443052   -0.066259
 C    1.825526    3.475235   -0.343463
 C    2.167432   -0.704212   -0.579966
 C    3.433346   -1.241211   -0.401114
 C    4.555211   -0.447522   -0.209076
 F    3.577933   -2.585488   -0.406387
 C    0.959522   -1.590420   -0.733948
 C    0.020702   -0.928460    1.544850
 C    0.404648   -2.085126    0.619011
 N   -1.147604   -0.254054    1.012181
 N   -2.645747    1.326515    0.582032
 N   -0.730214    1.941764    1.909216
 O    3.096532    2.860743   -0.265302
 H    5.265168    1.580021   -0.018618
 H    1.045475    1.112416   -0.666669
 H   -1.149494   -3.334207    1.427975
 H   -0.555953   -3.882634   -0.135932
 H   -1.817310   -2.267019   -1.346163
 H   -2.919513   -2.810223   -0.098257
 H   -4.368243   -0.935879   -1.259869
 H   -3.276739    0.743656   -2.729680
 H   -3.989236    2.056456   -1.777708
 H   -5.037494    0.982889   -2.731475
 H   -6.411197    0.410502   -0.683569
 H   -5.630467   -0.257997    0.765844
 H   -5.406537    1.449449    0.353048
 H    2.002461    4.542758   -0.205663
 H    1.362262    3.312442   -1.325495
 H    1.151415    3.105299    0.439730
 H    5.525343   -0.915457   -0.081978
 H    0.182780   -1.035216   -1.270179
 H    1.209548   -2.466216   -1.341875
 H    0.828624   -0.196397    1.633322
 H   -0.197000   -1.321118    2.547472
 H    1.195735   -2.655704    1.119038
 H   -1.211588    2.833287    1.946345
 H   -0.519879    1.635852    2.853655
