35 
5u5k_ligand_ani.xyz
 C    3.176261    0.649936    0.825678
 C    2.247609    1.613977    1.215616
 C    1.015195    1.712366    0.590296
 C   -4.161624   -1.182032    0.400490
 C   -1.718983   -0.928690    0.237840
 C    4.933908   -1.342166   -0.054147
 C    0.684924    0.843709   -0.456756
 C    1.609397   -0.118399   -0.846641
 C    2.852269   -0.220818   -0.211437
 C   -0.670562    0.936987   -1.125317
 C   -1.845528    0.526013   -0.223631
 C   -3.194067    0.712153   -0.927759
 C   -4.368212    0.258723   -0.059293
 N   -2.861060   -1.310816    1.127344
 O    3.675332   -1.200623   -0.675292
 H    4.133868    0.589547    1.331904
 H    2.498935    2.294776    2.026754
 H    0.300187    2.468533    0.909785
 H   -4.132519   -1.832148   -0.477322
 H   -4.967671   -1.523490    1.047290
 H   -0.785335   -1.101057    0.769963
 H   -1.734247   -1.577225   -0.644748
 H    4.831945   -1.576080    1.013880
 H    5.428096   -2.172700   -0.560367
 H    5.542078   -0.434702   -0.165338
 H    1.389110   -0.816559   -1.650888
 H   -0.676863    0.310453   -2.027344
 H   -0.837591    1.969612   -1.460835
 H   -1.838473    1.165568    0.673183
 H   -3.185438    0.117339   -1.854477
 H   -3.320178    1.760048   -1.229491
 H   -4.456399    0.912902    0.820101
 H   -5.312735    0.339108   -0.607167
 H   -2.880955   -0.611060    1.915736
 H   -2.734571   -2.272724    1.490677
