37 
5u62_ligand_ani.xyz
 C    3.413502    0.578769    0.279899
 C    2.336550    0.049738   -0.420037
 C    1.811996   -1.199478   -0.153222
 C   -0.745282   -1.419065   -0.232891
 C   -1.901092   -2.116650   -0.957483
 C   -3.205709   -1.946935   -0.178385
 C   -3.444678   -0.502540    0.098585
 C   -1.005609    0.088133   -0.177664
 C   -4.547319    0.275781    0.264180
 C   -2.891967    1.582794    0.520749
 C    2.451649   -1.915137    0.875046
 C    3.526124   -1.385789    1.584052
 C    4.031989   -0.107995    1.297947
 O    3.678856    1.845414   -0.182413
 C    2.909815    1.970379   -1.369887
 O    1.892506    0.975328   -1.334132
 C    0.609286   -1.737806   -0.893741
 N   -2.364382    0.351890    0.276708
 N   -4.199980    1.583148    0.523071
 N   -2.074805    2.700343    0.691279
 H   -0.726083   -1.794041    0.801538
 H   -1.677236   -3.182769   -1.088244
 H   -2.016781   -1.685720   -1.961525
 H   -3.135183   -2.493530    0.772157
 H   -4.055122   -2.366226   -0.724264
 H   -0.854621    0.542512   -1.164744
 H   -0.306219    0.569905    0.508525
 H   -5.587657   -0.018712    0.203688
 H    2.101787   -2.914915    1.124163
 H    3.985560   -1.971881    2.375578
 H    4.865992    0.319101    1.845919
 H    3.554993    1.805063   -2.246644
 H    2.445299    2.958127   -1.401958
 H    0.708306   -2.828209   -0.971886
 H    0.601812   -1.346342   -1.920296
 H   -1.437306    2.596504    1.473455
 H   -2.659796    3.512331    0.846612
