54 
5u6b_ligand_ani.xyz
 N    0.426172    3.838284   -0.841792
 C   -0.761104    3.203547   -0.766666
 C   -0.919877    1.971301   -0.145537
 C   -2.222958    1.308724   -0.061049
 C   -3.515131    1.905374   -0.008590
 C    1.247796   -1.907982    0.457627
 C    2.290105    0.148275    1.511668
 C    3.163777   -0.948865   -0.627334
 C    3.099569   -1.958076   -1.585543
 C    2.133334   -2.947020   -1.533524
 C   -4.633073   -1.400900    0.055951
 C    1.294508    1.967380    0.359242
 C    1.456093    3.245327   -0.276213
 N    0.154287    1.338824    0.388818
 N   -4.454881    0.978122    0.059711
 N   -3.814165   -0.201789    0.079864
 C   -2.465956   -0.065316    0.013553
 C   -1.541705   -1.256151   -0.064730
 N   -1.084335   -1.764751    1.231136
 C    0.234462   -1.924898    1.575983
 C    2.238384   -0.912186    0.418731
 O    2.398477    1.464889    0.945440
 C    3.448821   -0.067750    2.464537
 C    1.204569   -2.912355   -0.503200
 F    3.992116   -1.980378   -2.577360
Cl    4.440221    0.213809   -0.807425
 O    0.590067   -2.055584    2.740813
 C   -2.074371   -2.031502    2.260245
 C   -5.170991   -1.693092   -1.330828
 O   -4.081091   -2.090610   -2.142530
 C   -3.935294    3.350090   -0.010271
 N    2.683625    3.847301   -0.246125
 H   -1.599639    3.702228   -1.241540
 H    1.361211    0.105714    2.079670
 H    2.121351   -3.712832   -2.299152
 H   -4.050992   -2.253947    0.407513
 H   -5.457982   -1.224739    0.748982
 H   -2.028813   -2.057682   -0.641390
 H   -0.655328   -0.961293   -0.624272
 H    3.288510   -1.014486    2.991647
 H    3.487398    0.738976    3.202029
 H    4.408314   -0.119072    1.940974
 H    0.419477   -3.659445   -0.447495
 H   -2.620661   -2.963608    2.062642
 H   -2.792498   -1.208434    2.319497
 H   -1.548642   -2.124234    3.210464
 H   -5.658109   -0.787250   -1.713849
 H   -5.922832   -2.492055   -1.257130
 H   -4.346530   -2.023947   -3.066798
 H   -3.881770    3.785650   -1.017048
 H   -4.974047    3.417357    0.323956
 H   -3.309684    3.959846    0.650215
 H    3.472758    3.241795   -0.069758
 H    2.815434    4.595026   -0.912081
