64 
5u6d_ligand_ani.xyz
 C    8.150288   -0.338575   -1.276990
 C   -2.590192    0.145769    1.771902
 C   -2.436149   -0.972754   -0.344729
 C   -1.214144    0.314369    1.775766
 C   -1.059275   -0.806211   -0.334599
 C    7.997311    0.203394   -0.004644
 C    7.126782   -1.087284   -1.842718
 C   -5.577675   -0.835838    1.779203
 C   -5.512771   -0.786519   -0.414267
 C   -3.226114   -0.501250    0.707565
 C   -4.683218   -0.688884    0.686849
 C   -0.422103   -0.161078    0.727123
 C    6.827725    0.019361    0.730271
 C    5.771552   -0.712279    0.163496
 C    5.968904   -1.253147   -1.104641
 C   -8.371238    0.352982   -1.234840
 C    1.958282   -1.189639    0.592986
 C    3.082482    0.759271   -0.364125
 C    1.067198    0.057410    0.738152
 C    1.570310    0.938064   -0.410036
 C    6.711782    0.615422    2.111894
 C    1.186138    3.095759   -1.611401
 C    1.587637    3.193701    0.785929
 C    4.464634   -0.953353    0.893021
 C   -7.968913   -1.048837   -0.762939
 N   -6.827119   -1.012299    1.379656
 N   -6.767292   -0.990584    0.041418
 N    3.273128   -0.698654    0.021763
 N   -9.311297    0.968079   -0.469460
 N    1.033965    2.360483   -0.328290
 O   -7.863767    0.861565   -2.216785
 F    4.968681   -1.997315   -1.658182
 H    9.073383   -0.181094   -1.828313
 H   -3.180763    0.533715    2.597470
 H   -2.906833   -1.487645   -1.178082
 H   -0.742403    0.832257    2.608585
 H   -0.477794   -1.193009   -1.170081
 H    8.805846    0.783290    0.435731
 H    7.208404   -1.527481   -2.832075
 H   -5.355793   -0.835959    2.840663
 H   -5.333970   -0.684504   -1.480020
 H    1.523154   -1.913721   -0.101713
 H    2.136908   -1.693366    1.543536
 H    3.571472    0.954550   -1.318737
 H    3.548176    1.386664    0.399650
 H    1.337820    0.549681    1.679481
 H    1.196361    0.546453   -1.361176
 H    5.916457    1.368749    2.158485
 H    6.488025   -0.148643    2.864769
 H    7.645570    1.105493    2.400949
 H    0.767506    2.507742   -2.431106
 H    2.244161    3.287109   -1.819419
 H    0.660371    4.051870   -1.551494
 H    1.514624    2.662268    1.735385
 H    2.635587    3.444677    0.596628
 H    1.018517    4.125456    0.856927
 H    4.387711   -0.317912    1.781695
 H    4.405018   -1.992188    1.237179
 H   -7.762101   -1.647195   -1.655169
 H   -8.745730   -1.530495   -0.163371
 H    3.462373   -1.224157   -0.840534
 H   -9.543455    1.924889   -0.692724
 H   -9.588396    0.604347    0.428582
 H    0.016707    2.243177   -0.148777
