48 
5u6v_ligand_dft.xyz
 C    0.578744   -0.712202   -0.445308
 C   -1.260638   -2.543345    0.590467
 C   -0.791731   -0.469507   -0.525238
 C   -3.753510   -0.459944   -1.209902
 C   -4.043787   -1.384295    0.957765
 C    0.820963    1.862022    0.833325
 C    1.030084    4.228534    0.475470
 C    1.682651    2.692856   -1.254930
 C    3.059122   -3.198866    2.527559
 C    3.331076   -2.728571    1.137267
 C    2.467106   -2.197909    0.200420
 N    3.263017   -1.948744   -0.868548
 N    4.532278   -2.291835   -0.625347
 N    4.576596   -2.759690    0.587931
 C    2.817818   -1.418872   -2.135724
 C    2.387734    0.039381   -2.014009
 N    1.501181    0.278842   -0.884712
 C    1.036145   -1.904242    0.149437
 C    0.098898   -2.807611    0.656527
 C   -1.728643   -1.365783   -0.005530
 C   -3.176166   -1.074236   -0.089167
 C   -5.108373   -0.203802   -1.240651
 C   -5.884974   -0.569659   -0.125487
 N   -5.353866   -1.144788    0.958106
 N   -7.249737   -0.390676   -0.113945
 C    1.326780    1.602381   -0.451703
 C    0.666085    3.159816    1.290389
 C    1.542398    3.998227   -0.791200
Cl    0.840137    5.868169    1.056404
 H   -1.968198   -3.272550    0.972845
 H   -1.125280    0.469535   -0.957357
 H   -3.137158   -0.204209   -2.067710
 H   -3.653238   -1.833618    1.869616
 H    0.554798    1.034705    1.481901
 H    2.061979    2.541856   -2.258967
 H    2.176871   -2.701457    2.942001
 H    2.883539   -4.280264    2.558991
 H    3.917652   -2.983922    3.168697
 H    1.995067   -2.042333   -2.500088
 H    3.651226   -1.502363   -2.834933
 H    1.930000    0.335423   -2.972694
 H    3.281651    0.654178   -1.866194
 H    0.450042   -3.737372    1.094060
 H   -5.572706    0.252130   -2.109511
 H   -7.629696    0.342374   -0.692670
 H   -7.671368   -0.473858    0.799861
 H    0.276854    3.342880    2.286046
 H    1.822676    4.831988   -1.425817
