46 
5u7j_ligand_ani.xyz
 N   -2.121106   -0.758098    0.359373
 C   -1.773472    1.765679    0.588888
 N   -3.953007   -0.937149    1.586401
 C   -1.104994   -1.270794   -0.423102
 C   -3.109785   -1.608397    0.833706
 C   -3.074268   -2.988841    0.453514
 C    2.231830    1.836939    0.159186
 C   -1.155910   -2.606237   -0.757038
 C    4.775226   -2.187133   -0.056127
 C    4.087697    0.139004    1.327145
 C   -3.430056    2.343404   -1.243794
 C   -1.953858    2.300349   -0.846041
 C   -1.331257    3.691715   -0.953591
 C   -2.463005    0.477636    0.870734
 N   -3.538269    0.356082    1.605071
 N   -2.135007   -3.458166   -0.318575
 O   -0.165255   -0.390971   -0.762093
 C    0.900599   -0.883185   -1.591938
 C    1.894862    0.249194   -1.783991
 C    2.564129    0.658625   -0.497710
 C    2.795721    2.176670    1.387555
 C    3.720761    1.321322    1.968152
 C    3.515014   -0.183083    0.097802
 O    3.828397   -1.304556   -0.613198
 H   -2.199608    2.488023    1.295306
 H   -0.707318    1.671998    0.818747
 H   -3.851037   -3.655263    0.813243
 H    1.506003    2.502870   -0.301008
 H   -0.407410   -3.060054   -1.397878
 H    5.747720   -1.697318    0.085115
 H    4.431486   -2.586869    0.907054
 H    4.883371   -3.005023   -0.770011
 H    4.814596   -0.520155    1.790273
 H   -3.997503    2.991044   -0.561624
 H   -3.545881    2.737812   -2.259012
 H   -3.887031    1.347331   -1.211998
 H   -1.430439    1.620881   -1.528200
 H   -1.411975    4.087914   -1.972081
 H   -1.842198    4.391497   -0.279348
 H   -0.269432    3.684440   -0.679110
 H    0.488421   -1.211622   -2.554180
 H    1.384405   -1.733323   -1.104334
 H    1.363185    1.106826   -2.210615
 H    2.641973   -0.082604   -2.513466
 H    2.510085    3.101059    1.882271
 H    4.169763    1.568882    2.927195
