49 
5u7k_ligand_xtb.xyz
 N    1.973762   -1.283172   -0.448186
 C    1.873236   -2.659148   -0.696773
 C    1.263467    1.723829   -1.436847
 C    3.980515   -1.671918    0.678858
 C   -3.084437   -1.111877    1.029565
 C   -4.311580   -0.872743    0.422286
 C   -3.239690    0.733434   -1.021430
 C   -4.371520    0.059290   -0.605180
 C   -6.187297   -0.814062    2.061229
 C    2.285692    2.798059    2.219436
 C    3.585640    2.622259    1.444835
 C    3.957972    1.150372    1.297514
 O    2.950731    0.536244    0.511907
 C    3.020030   -0.781834    0.274358
 N    3.929796   -2.996834    0.418389
 C    2.919892   -3.483160   -0.234420
 N    0.754527   -2.902995   -1.339629
 N    0.125650   -1.750284   -1.522277
 C    0.829286   -0.768228   -1.007134
 C    0.470194    0.625580   -1.060574
 N    0.557700    2.833997   -1.429006
 N   -0.679201    2.494800   -1.072737
 C   -1.677030    3.515810   -0.933806
 C   -0.797042    1.167063   -0.842728
 C   -2.011993    0.491821   -0.410963
 C   -1.949706   -0.442494    0.620824
 C   -5.549026   -1.576716    0.898068
 H    2.296438    1.736367   -1.719608
 H    4.841051   -1.353105    1.244372
 H   -3.018411   -1.836725    1.828243
 H   -3.304114    1.426577   -1.846730
 H   -5.315778    0.252425   -1.094481
 H   -5.487655   -0.732548    2.890194
 H   -6.465570    0.190203    1.748823
 H   -7.079649   -1.328894    2.409526
 H    1.474639    2.292092    1.702459
 H    2.374711    2.383182    3.221343
 H    2.036963    3.852492    2.301316
 H    4.403481    3.132433    1.955636
 H    3.473426    3.054574    0.449909
 H    4.008212    0.665650    2.281224
 H    4.931430    1.045232    0.801328
 H    2.891487   -4.545805   -0.415675
 H   -1.175707    4.441031   -0.652925
 H   -2.202778    3.679713   -1.877419
 H   -2.395563    3.231102   -0.166177
 H   -1.004727   -0.635775    1.107104
 H   -5.294557   -2.586082    1.226914
 H   -6.268432   -1.654702    0.080791
