59 
5u94_ligand_xtb.xyz
 C   -3.183650   -1.854656    0.011018
 N    0.461019    1.048686   -0.147066
 N   -1.766426    0.818172   -0.077802
 C   -1.782126   -1.702071   -0.034536
 O    2.380568   -1.291985   -0.115854
 N   -1.002800   -2.769116   -0.043770
 C   -1.204176   -0.418223   -0.071311
 N   -3.447987    3.111251   -0.187929
 C   -2.268697    3.729776   -0.139858
 N   -2.045619    5.025094   -0.131704
 O   -0.702539    5.186720   -0.116764
 N   -0.059079    4.019115   -0.112609
 C   -0.970988    3.078884   -0.128665
 C   -0.764097    1.665313   -0.117290
 C    1.749447    1.688790   -0.157357
 C    2.236981    1.958166    1.264795
 C   -4.381823   -1.963885    0.069306
 C   -5.843590   -2.007173    0.088372
 C   -6.321185   -3.116208   -0.859787
 C   -6.323371   -2.264488    1.519862
 O   -6.364965   -0.744176   -0.298798
 C    0.204602   -0.294721   -0.108561
 C    1.003233   -1.442206   -0.106643
 C    0.318335   -2.647232   -0.078323
 C    3.165363   -2.459740   -0.113483
 C    4.637507   -2.028070   -0.075763
 C    4.859534   -1.146292    1.154267
 N    6.264734   -0.665361    1.201498
 C    6.611625    0.139761   -0.001049
 C    6.448393   -0.726926   -1.240509
 C    5.018969   -1.251469   -1.337855
 H   -3.443831    2.106252   -0.089052
 H   -4.293359    3.643473   -0.093882
 H    1.654708    2.636380   -0.691678
 H    2.439667    1.029880   -0.689333
 H    3.224037    2.413352    1.243860
 H    2.268879    1.035002    1.841881
 H    1.558522    2.649484    1.756434
 H   -5.958678   -4.082405   -0.520151
 H   -7.408433   -3.129624   -0.881709
 H   -5.949229   -2.942265   -1.868696
 H   -6.001532   -1.450168    2.163284
 H   -5.917651   -3.200509    1.892407
 H   -7.408971   -2.307068    1.528671
 H   -6.157249   -0.589075   -1.226709
 H    0.841995   -3.592328   -0.083882
 H    2.978869   -3.054541   -1.016094
 H    2.933829   -3.076996    0.765202
 H    5.248501   -2.933295    0.000356
 H    4.637430   -1.700704    2.068130
 H    4.194050   -0.282640    1.095125
 H    6.416247   -0.115315    2.053606
 H    6.887577   -1.482548    1.233065
 H    5.936550    0.996511   -0.043527
 H    7.636630    0.501683    0.093570
 H    7.152477   -1.561095   -1.206552
 H    6.687119   -0.133323   -2.121771
 H    4.924334   -1.900174   -2.207378
 H    4.324365   -0.421278   -1.467944
