41 
5u9i_ligand_ani.xyz
 C   -5.687824    0.776828   -1.026459
 C   -5.275004   -0.349484   -0.126277
 C   -4.044652   -0.818886    0.095024
 C   -2.797710   -0.312320   -0.590805
 C   -1.704193    0.142157    0.384545
 C   -0.503416    0.733113   -0.306983
 C    0.569838    1.249720    0.298865
 C    1.679917    1.897407   -0.497248
 C    3.078207    1.329864   -0.210162
 C    3.220689   -0.136689   -0.537626
 C    4.306733   -0.879081   -0.306701
 C    5.549171   -0.337911    0.346667
 C    4.371209   -2.332956   -0.693543
 C   -3.823440   -1.940577    1.082562
 C    0.767559    1.233254    1.791595
 H   -6.249594    1.534960   -0.467647
 H   -4.841705    1.278880   -1.500304
 H   -6.350403    0.417126   -1.822951
 H   -6.091525   -0.842894    0.404847
 H   -3.034361    0.514894   -1.268009
 H   -2.384465   -1.118141   -1.215786
 H   -1.393852   -0.709817    1.008853
 H   -2.135872    0.874499    1.085068
 H   -0.520882    0.730395   -1.400427
 H    1.695680    2.975540   -0.278780
 H    1.467833    1.796264   -1.570551
 H    3.337995    1.507751    0.843994
 H    3.810371    1.914542   -0.786585
 H    2.368919   -0.618672   -1.020482
 H    6.421864   -0.476293   -0.303919
 H    5.473049    0.727364    0.582222
 H    5.765852   -0.876078    1.278229
 H    3.446450   -2.672227   -1.172061
 H    5.201700   -2.513700   -1.387745
 H    4.554890   -2.964149    0.185168
 H   -4.772014   -2.375099    1.414681
 H   -3.217451   -2.740113    0.638835
 H   -3.289337   -1.590965    1.974816
 H   -0.138968    0.942886    2.330979
 H    1.562679    0.532774    2.074404
 H    1.070641    2.223645    2.152441
