41 
5u9i_ligand_xtb.xyz
 C   -4.509864   -2.170184   -0.781904
 C   -4.765474   -1.056413    0.181102
 C   -4.074735    0.069656    0.313545
 C   -2.861327    0.416102   -0.505611
 C   -1.584550   -0.191019    0.106246
 C   -0.383197    0.165069   -0.712700
 C    0.485198    1.135922   -0.453285
 C    1.666303    1.385598   -1.350046
 C    2.992632    1.061468   -0.652005
 C    3.084137   -0.379653   -0.250144
 C    4.151648   -0.932753    0.312400
 C    5.395720   -0.140305    0.599778
 C    4.193427   -2.381075    0.695754
 C   -4.443074    1.092761    1.348319
 C    0.392094    2.021738    0.757833
 H   -3.718137   -1.933136   -1.485577
 H   -4.227554   -3.072591   -0.238078
 H   -5.418731   -2.395994   -1.339913
 H   -5.615289   -1.223307    0.832396
 H   -2.746695    1.501257   -0.547851
 H   -2.967918    0.056502   -1.530340
 H   -1.695293   -1.277204    0.136437
 H   -1.472054    0.160478    1.131809
 H   -0.260265   -0.421324   -1.615186
 H    1.675367    2.436964   -1.653083
 H    1.581715    0.776565   -2.252254
 H    3.107053    1.695822    0.232576
 H    3.819807    1.308633   -1.325723
 H    2.202982   -0.976957   -0.436211
 H    5.820984    0.253669   -0.323437
 H    5.169506    0.709999    1.242855
 H    6.145234   -0.755874    1.089773
 H    4.376749   -2.483555    1.765455
 H    3.257390   -2.877703    0.453609
 H    5.003972   -2.886802    0.170663
 H   -5.278274    0.757476    1.957955
 H   -3.593485    1.291407    2.001265
 H   -4.718461    2.032334    0.868587
 H   -0.638817    2.294932    0.968450
 H    0.793795    1.511860    1.634062
 H    0.962784    2.935071    0.606071
