118 
5uah_ligand_xtb.xyz
 C   -0.311683   -3.245730    1.504057
 C   -1.370321   -2.783855    0.732757
 C   -1.157061   -2.428919   -0.625542
 C    0.135449   -2.448969   -1.170386
 C    2.588587   -2.793230   -0.831756
 C    3.642098   -3.136969    0.029092
 C    3.441187   -3.625515    1.307833
 C    2.123254   -3.707578    1.763392
 C    1.009657   -3.280154    0.960578
 C    1.235063   -2.846641   -0.376535
 C    3.197882   -2.411126   -2.061655
 C    4.703440   -2.315434   -1.757412
 C    5.612355   -2.902801   -2.820212
 C    4.574619   -4.039801    2.189667
 C   -3.331854   -2.697740    2.362196
 C   -4.658032   -2.013154    2.344063
 C   -4.749225   -0.709769    2.029549
 C   -3.628569    0.161435    1.763496
 C   -3.716057    1.453198    1.442297
 C   -2.512831    2.337764    1.299527
 C   -2.404118    2.839115   -0.158372
 C   -1.153611    3.690302   -0.504160
 C    0.120287    3.036321    0.076795
 C    1.499687    3.531520   -0.446842
 C    2.545255    3.365045    0.690274
 C    3.894121    2.707565    0.328231
 C    3.763606    1.236370   -0.150800
 C    3.748904    1.050469   -1.646553
 C    4.314611   -0.005112   -2.218472
 C   -5.814619   -2.851836    2.775077
 C   -2.624797    3.462417    2.331080
 C   -1.340713    5.143292   -0.052707
 C    1.547027    4.938592   -1.036700
 C    4.733071    3.540521   -0.637188
 C    2.085680    5.149974    2.202288
 C    2.653536    6.430236    2.748654
 C    2.761842    0.015785    1.648316
 C   -4.791019    2.509313   -3.093231
 C   -5.266794    0.639388   -1.597501
 C   -5.518188   -0.870858   -1.533130
 C   -4.168490   -1.198781   -3.478603
 C   -3.873109    0.302001   -3.556198
 C   -2.205385   -2.050395   -1.544975
 N   -2.679247   -2.566779    1.189948
 N   -3.424190   -1.838533   -1.220376
 N   -4.418114   -1.604610   -2.112061
 N   -5.022825    1.059835   -3.001647
 O   -0.471121   -3.639063    2.787790
 O    1.985602   -4.184098    2.994430
 O    4.867047   -2.970510   -0.516201
 O    2.724307   -2.136824   -3.162217
 O    4.989966   -0.941811   -1.487669
 O    2.594995    0.589987    0.371491
 O    2.892625    4.625263    1.282784
 O    1.044624    4.652934    2.554214
 O    0.032436    1.635314   -0.184028
 O   -2.470875    1.727487   -1.048443
 O   -2.923600   -3.297046    3.353987
 O    0.245844   -2.045007   -2.442631
 H    5.372165   -2.456807   -3.782116
 H    5.458959   -3.977106   -2.873941
 H    6.647336   -2.695095   -2.563674
 H    5.519523   -3.772596    1.727509
 H    4.545657   -5.115719    2.352877
 H    4.486136   -3.561429    3.163038
 H   -5.724366   -0.237204    2.053390
 H   -2.642183   -0.261323    1.888316
 H   -4.680371    1.932850    1.325281
 H   -1.628088    1.735141    1.513588
 H   -3.297307    3.439011   -0.383148
 H   -1.085716    3.655616   -1.598777
 H    0.084087    3.200454    1.160970
 H    1.770689    2.837808   -1.247230
 H    2.088587    2.759414    1.484470
 H    4.442115    2.682516    1.278408
 H    4.642660    0.690582    0.216469
 H    3.256920    1.771823   -2.273747
 H    4.277217   -0.165308   -3.289795
 H   -5.579134   -3.314594    3.732586
 H   -6.719499   -2.258935    2.875303
 H   -5.989420   -3.656677    2.060365
 H   -1.691937    4.006136    2.428761
 H   -2.862471    3.030665    3.300918
 H   -3.416864    4.158654    2.065072
 H   -0.969588    5.839401   -0.797546
 H   -2.393651    5.365286    0.099975
 H   -0.821673    5.330133    0.881772
 H    1.249742    5.689598   -0.312618
 H    0.899991    5.006580   -1.906644
 H    2.562541    5.163874   -1.350855
 H    5.692630    3.054934   -0.796381
 H    4.907032    4.523295   -0.207833
 H    4.249825    3.660686   -1.600853
 H    3.266567    6.193263    3.616539
 H    3.277047    6.915312    2.004289
 H    1.847659    7.084773    3.067391
 H    1.832195   -0.505067    1.872875
 H    2.950470    0.773696    2.415661
 H    3.586437   -0.703239    1.649117
 H   -5.636379    3.054894   -2.679069
 H   -4.650005    2.805857   -4.130626
 H   -3.892239    2.745642   -2.525197
 H   -6.121940    1.188282   -1.202433
 H   -4.367216    0.887858   -1.021556
 H   -5.618570   -1.169932   -0.488819
 H   -6.436009   -1.137095   -2.067828
 H   -5.058887   -1.448276   -4.065063
 H   -3.333062   -1.764817   -3.889368
 H   -3.000091    0.548681   -2.945853
 H   -3.698374    0.611611   -4.587536
 H   -1.853503   -1.972609   -2.570073
 H   -3.238468   -2.161596    0.430277
 H   -5.854772    0.816225   -3.553203
 H   -1.435737   -3.594424    3.089414
 H    1.041669   -4.165933    3.258402
 H    0.893574    1.223571    0.004995
 H   -1.618891    1.274011   -0.911627
 H    1.174348   -2.102290   -2.795443
