66 
5ubt_ligand_ani.xyz
 C   -1.747720    2.081458    0.193391
 C   -1.820947    3.401448   -0.347926
 N   -0.770999    4.199104   -0.352677
 C   -0.562853    0.326447    1.002911
 C   -1.883746   -0.041139    0.919402
 C   -2.657322    1.030507    0.421571
 C   -4.100105    1.128753    0.284879
 C    0.609671   -0.470221    1.406698
 N    0.583743    2.430775    0.574413
 C   -6.247482    1.655280    0.432594
 N   -0.497562    1.635996    0.567215
 C    0.371545    3.645318    0.125990
 N   -2.997689    3.877162   -0.837259
 N   -4.910168    0.108322   -0.132949
 N   -6.215674    0.414927   -0.043756
 C   -4.952898    2.158971    0.647069
 C   -4.542978   -1.206238   -0.650028
 C   -5.167729   -1.462097   -2.025089
 C   -4.855448   -2.883509   -2.476813
 O   -5.295797   -3.843435   -1.537984
 C   -4.677670   -3.675684   -0.277947
 C   -4.974915   -2.307100    0.321071
 C    0.399735   -1.561263    2.257475
 C    1.462190   -2.375273    2.625015
 C    2.740785   -2.129678    2.142182
 C    2.973817   -1.037270    1.298195
 C    1.902515   -0.216397    0.937221
 N    4.297501   -0.780982    0.867506
 C    4.564352    0.542518    0.322983
 C    6.070006    0.776695    0.258572
 N    6.705219   -0.282095   -0.504741
 C    6.426422   -1.615806    0.005699
 C    4.921665   -1.838145    0.070733
 C    7.390823   -0.136928   -1.682177
 C    7.588394    1.277831   -2.193114
 O    7.826797   -1.098436   -2.297005
 H   -2.267659   -1.013848    1.205104
 H   -7.201094    2.135226    0.603085
 H    1.252713    4.279250    0.135305
 H   -3.637129    3.204447   -1.239868
 H   -2.912203    4.742769   -1.355376
 H   -4.673131    3.124608    1.042012
 H   -3.454916   -1.221774   -0.760272
 H   -4.782539   -0.738286   -2.750915
 H   -6.252934   -1.324887   -1.953222
 H   -3.768444   -2.992245   -2.642634
 H   -5.363412   -3.118031   -3.416592
 H   -3.585033   -3.810876   -0.375436
 H   -5.059968   -4.477852    0.359932
 H   -6.050202   -2.205612    0.508820
 H   -4.458062   -2.188671    1.280478
 H   -0.598448   -1.764018    2.637711
 H    1.291993   -3.224399    3.281259
 H    3.575525   -2.763021    2.430460
 H    2.059226    0.626641    0.279744
 H    4.103212    1.288937    0.977685
 H    4.126696    0.664736   -0.685350
 H    6.471870    0.768677    1.280310
 H    6.286865    1.751320   -0.181737
 H    6.856948   -1.710489    1.011968
 H    6.911454   -2.331625   -0.660529
 H    4.503367   -1.857335   -0.950766
 H    4.708805   -2.811797    0.523012
 H    8.175908    1.213792   -3.108812
 H    6.629795    1.757600   -2.417052
 H    8.121560    1.898396   -1.466020
