40 
5uc4_ligand_ani.xyz
 C   -1.742896   -0.220897   -0.415389
 C   -3.831485    0.070008    0.413596
 C   -5.060306   -1.693758   -1.380040
 C    4.346911    0.229916   -1.683382
 C   -5.231026   -0.141751    0.494679
 C   -5.824202   -1.013182   -0.394187
 C   -3.697599   -1.509656   -1.484618
 C    2.564928   -2.872091    0.745484
 C    3.463461   -1.633448    0.656078
 C    4.126718   -1.342484    2.007315
 C    2.688961   -0.419537    0.178155
 C    1.509805   -0.070630    0.835275
 C    0.736895    1.019335    0.465011
 C    1.161136    1.830470   -0.592994
 O    0.375786    2.886391   -0.929814
 C    2.344007    1.520133   -1.248388
 C    3.111267    0.413032   -0.882022
 O    5.177913   -0.648782   -1.593368
 C   -0.548930    1.329535    1.157814
 O   -0.651895    2.068102    2.108321
 N   -1.681370    0.679052    0.629740
 C   -2.949369    0.853274    1.134788
 C   -3.057703   -0.621652   -0.584504
 H   -0.846797   -0.500782   -0.950425
 H   -5.564721   -2.371931   -2.062412
 H    4.478879    1.025287   -2.447560
 H   -5.818394    0.377258    1.247978
 H   -6.895331   -1.186570   -0.343778
 H   -3.123817   -2.036198   -2.243878
 H    3.161675   -3.755839    0.999406
 H    1.792628   -2.763596    1.515758
 H    2.062723   -3.060030   -0.209795
 H    4.248651   -1.824667   -0.075625
 H    3.379565   -1.062818    2.760932
 H    4.665886   -2.225567    2.369105
 H    4.842815   -0.517630    1.921085
 H    1.164861   -0.666048    1.678291
 H    0.768842    3.339801   -1.686240
 H    2.684491    2.150348   -2.071726
 H   -3.110241    1.520237    1.973575
