42 
5uch_ligand_ani.xyz
 C   -3.137819   -0.901710   -0.169410
 C   -3.185815    1.246918    0.554457
 C   -5.893137   -1.314698    0.107944
 C    4.348201   -1.769655   -1.268455
 C   -0.807577    1.808687    0.420037
 C    4.279740   -0.306627   -1.417836
 C   -3.994449    0.152407    0.308646
 C   -5.387180   -0.076720    0.444252
 C   -5.047254   -2.353232   -0.366351
 N    4.402516   -2.917917   -1.139748
 C    2.841203   -1.769284    2.036824
 C    3.506727   -0.500328    1.496039
 C    3.840000    0.478082    2.626387
 C    2.620485    0.159270    0.451963
 C    1.388329    0.677228    0.853043
 C    0.519072    1.293663   -0.034395
 C    0.900047    1.426086   -1.372907
 O    0.032236    2.044208   -2.215287
 C    2.127825    0.919742   -1.789389
 C    2.975557    0.272303   -0.898994
 O   -0.980073    2.893859    0.922981
 N   -1.885497    0.919972    0.245173
 C   -3.688767   -2.163153   -0.506810
 C   -1.851245   -0.390022   -0.187627
 H   -3.420003    2.235798    0.930627
 H   -6.958023   -1.505057    0.205999
 H    4.398313   -0.059604   -2.476501
 H    5.142769    0.123292   -0.894655
 H   -6.037418    0.714633    0.808479
 H   -5.484484   -3.314398   -0.621580
 H    3.455127   -2.221104    2.824216
 H    1.854559   -1.548515    2.460555
 H    2.706972   -2.508717    1.240001
 H    4.452812   -0.792199    1.027898
 H    2.936207    0.832692    3.133431
 H    4.476469   -0.007165    3.375118
 H    4.372875    1.353332    2.238844
 H    1.084212    0.600125    1.895031
 H    0.404929    2.041668   -3.105967
 H    2.418830    1.020998   -2.835584
 H   -3.050719   -2.965685   -0.869680
 H   -0.913519   -0.852757   -0.460277
