40 
5ucj_ligand_ani.xyz
 C   -2.450399    3.413090   -0.255515
 C   -3.468959    2.319778    0.077960
 C   -4.144466    2.604159    1.425767
 C   -2.826300    0.953632    0.087787
 C   -1.667219    0.675368    0.800977
 C   -1.073618   -0.596987    0.840208
 C   -1.653794   -1.664853    0.161011
 O   -1.074812   -2.876547    0.206599
 C   -2.831641   -1.422974   -0.563431
 C   -3.377672   -0.145573   -0.583134
 O   -4.493723   -0.149992   -1.336966
 N   -4.705640   -1.436151   -1.826584
 C   -3.738751   -2.175579   -1.377170
 C    0.198843   -0.829727    1.590614
 O    0.259057   -1.293096    2.704546
 N    1.377379   -0.459565    0.909033
 C    1.508305    0.021412   -0.378549
 C    2.851410    0.219626   -0.645921
 C    3.573212   -0.164449    0.540220
 C    2.631130   -0.575140    1.464075
 C    4.988682   -0.076810    0.576399
 C    5.622688    0.383198   -0.552984
 F    6.963600    0.478951   -0.555271
 C    4.937137    0.766921   -1.730212
 C    3.562746    0.686966   -1.779668
 H   -1.678740    3.491428    0.518336
 H   -1.950700    3.208460   -1.208008
 H   -2.946005    4.387703   -0.328915
 H   -4.240480    2.318643   -0.701519
 H   -4.932668    1.871491    1.629247
 H   -3.412377    2.548556    2.240815
 H   -4.592766    3.603836    1.432587
 H   -1.181782    1.466254    1.369092
 H   -1.586279   -3.485194   -0.342431
 H   -3.719538   -3.225540   -1.646561
 H    0.634363    0.175720   -0.994861
 H    2.743368   -0.939369    2.477965
 H    5.568026   -0.357240    1.450368
 H    5.515725    1.119081   -2.577323
 H    3.033099    0.980357   -2.682529
