58 
5uex_ligand_xtb.xyz
 C    4.913618   -1.631400   -0.202582
 C    3.498492   -3.008112   -1.597857
 C   -0.681100    0.332392    0.207563
 C    3.857411   -0.775529    0.064588
 C   -2.171737   -1.379825    1.040427
 C    2.597508   -1.041720   -0.490962
 C    0.683845    3.838400    0.072165
 C   -0.457911    1.732117   -0.192058
 C   -0.072812    4.430775   -0.990597
 C    3.043287    1.645387    2.960989
 C    2.251629    2.636516    2.102327
 C   -4.248708   -3.106182   -1.313362
 C   -4.456283   -1.618888   -1.154193
 C   -1.103901   -2.266834    1.110525
 C    0.157218   -1.872544    0.702689
 C   -1.942803   -0.077429    0.607875
 C    0.371318   -0.594012    0.208594
 C    4.721407   -2.733176   -1.016099
 C    2.452416   -2.145817   -1.330054
 C   -1.198776    2.311649   -1.173975
 C    0.516373    2.546255    0.476690
 C    4.019216    0.445892    0.919756
 C    3.278302    0.307322    2.257711
 C   -1.858188    4.121768   -2.631182
 N   -1.031223    3.587793   -1.572498
 N   -3.456627   -1.765531    1.418674
 O    0.058747    5.576281   -1.390585
 O   -5.872429   -2.098586    1.053736
 O   -4.960038    0.166353    0.733463
 O    1.586029   -0.152596   -0.254803
 O    1.172761    1.954320    1.492012
 F    5.755813   -3.558860   -1.258365
 F    1.256964   -2.388082   -1.909086
 S   -4.817818   -1.249721    0.591086
 H    5.888974   -1.446596    0.218477
 H    3.360535   -3.856269   -2.247440
 H    1.385682    4.504211    0.547058
 H    2.489813    1.449619    3.880363
 H    3.992847    2.112669    3.226880
 H    2.900383    3.072391    1.332554
 H    1.873946    3.455073    2.729531
 H   -3.308531   -3.413771   -0.860751
 H   -5.066345   -3.633256   -0.826458
 H   -4.227805   -3.385572   -2.364531
 H   -5.323301   -1.261110   -1.701651
 H   -3.581088   -1.032657   -1.417727
 H   -1.254530   -3.267032    1.489037
 H    0.976185   -2.574120    0.767345
 H   -2.760506    0.624817    0.612207
 H   -1.957806    1.747171   -1.697065
 H    3.597846    1.283632    0.364542
 H    5.076710    0.642896    1.097290
 H    2.305563   -0.151469    2.089399
 H    3.847478   -0.348492    2.919231
 H   -2.911821    4.073892   -2.354254
 H   -1.563748    5.161495   -2.773881
 H   -1.700261    3.568493   -3.557956
 H   -3.554659   -2.712036    1.749790
