39 
5uez_ligand_dft.xyz
 C   -4.095962   -0.820557    0.709744
 C   -1.173103    3.867469    0.044574
 C    0.922900    2.857900    0.659179
 C   -2.541540   -1.404681   -1.517773
 C   -2.997290   -0.017850    0.412089
 C    0.510625    1.631097    0.134925
 C    1.959497   -1.839585    0.627936
 C    1.071939   -0.811672    0.702368
 C    4.783125   -0.045424   -1.017168
 C   -4.423050   -1.911827   -0.089349
 C    0.089015    3.968719    0.624085
 C   -3.637196   -2.198988   -1.203734
 C   -1.593766    2.661695   -0.503924
 C   -2.224192   -0.314224   -0.709246
 C   -0.756062    1.551488   -0.451153
 C    1.435465    0.468745    0.137423
 C    3.260781   -1.644184    0.032773
 C   -0.617420   -2.114334    1.715158
 N    2.612952    0.666842   -0.379623
 N    3.490857   -0.336258   -0.414689
 O    4.133607   -2.493859   -0.084958
 O   -1.100956    0.377658   -1.077675
 O   -0.131984   -0.854647    1.284557
 H   -4.696829   -0.586986    1.584057
 H   -1.828361    4.732167    0.004434
 H    1.913297    2.926727    1.097840
 H   -1.916804   -1.614219   -2.379718
 H   -2.732818    0.812676    1.056091
 H    1.760964   -2.828041    1.020938
 H    5.581834   -0.244096   -0.298773
 H    4.940647   -0.684568   -1.889231
 H    4.777674    1.004072   -1.306760
 H   -5.280820   -2.531244    0.152144
 H    0.424543    4.911646    1.043715
 H   -3.878291   -3.047460   -1.837198
 H   -2.562739    2.571651   -0.984406
 H   -0.641491   -2.823490    0.880356
 H   -0.002016   -2.514325    2.529234
 H   -1.633390   -1.934524    2.064633
