71 
5ufc_ligand_ani.xyz
 O   -2.947686    1.574871   -0.128844
 C   -2.617732    0.256858   -0.514540
 C   -3.828736   -0.618219   -0.229406
 N   -5.017963    0.007876   -0.783077
 C   -6.272417   -0.474212   -0.588759
 C   -7.408738    0.439927   -0.985829
 O   -6.499452   -1.592956   -0.124951
 C   -3.592925   -2.042798   -0.774995
 O   -4.221176   -2.995862    0.050463
 O   -2.232744   -2.337531   -0.907971
 C   -1.310271   -1.830358    0.061546
 C   -1.374305   -2.616237    1.376814
 O   -2.545465   -2.396280    2.124363
 C   -1.431560   -0.309068    0.269899
 O   -0.229220    0.296390   -0.189479
 C    0.376514    1.223916    0.659519
 O   -0.386748    2.403348    0.619573
 C    0.179926    3.566244    1.212303
 C   -0.834629    4.680867    0.969256
 O   -1.293575    4.713429   -0.358741
 C    1.558158    3.880968    0.631661
 O    1.412935    4.264086   -0.722881
 C    2.479563    2.662779    0.703803
 O    3.629594    2.994169   -0.055064
 C    1.778412    1.449256    0.110365
 O    2.553492    0.290966    0.393208
 C    2.633641   -0.654088   -0.650787
 O    2.258990   -1.930460   -0.202697
 C    3.087352   -2.434921    0.857902
 C    2.467680   -3.727411    1.350985
 C    4.501884   -2.618739    0.311606
 O    4.536820   -3.562028   -0.751455
 C    5.027280   -1.279008   -0.188830
 O    6.302313   -1.411423   -0.782906
 C    4.056362   -0.673367   -1.202027
 O    4.450148    0.657909   -1.491070
 H   -2.128985    2.098704   -0.089268
 H   -2.360916    0.222365   -1.586090
 H   -3.933947   -0.710714    0.863577
 H   -4.915880    1.000995   -0.959698
 H   -8.037938   -0.083036   -1.711515
 H   -7.081483    1.392215   -1.412211
 H   -8.025118    0.633731   -0.102759
 H   -3.991652   -2.128903   -1.795912
 H   -5.173560   -2.732487    0.072275
 H   -0.329376   -2.028254   -0.380400
 H   -1.240743   -3.684901    1.144577
 H   -0.533824   -2.293858    2.006837
 H   -3.271678   -2.756262    1.578443
 H   -1.584947   -0.092458    1.337889
 H    0.422940    0.836123    1.693281
 H    0.290388    3.404005    2.298316
 H   -1.714971    4.491532    1.593002
 H   -0.403134    5.646788    1.279825
 H   -0.503225    4.738678   -0.921173
 H    2.004476    4.704806    1.209885
 H    2.301350    4.190925   -1.108763
 H    2.751219    2.455158    1.750323
 H    4.013443    2.171841   -0.415974
 H    1.698925    1.609944   -0.972154
 H    1.922777   -0.387007   -1.439270
 H    3.112011   -1.692475    1.667340
 H    3.023755   -4.111081    2.213766
 H    1.431984   -3.554555    1.656786
 H    2.477109   -4.488316    0.565563
 H    5.169446   -3.004472    1.091456
 H    3.716584   -3.443634   -1.255238
 H    5.124300   -0.586821    0.655133
 H    6.265261   -2.246022   -1.277766
 H    4.076705   -1.277649   -2.123021
 H    5.395886    0.606601   -1.700828
