65 
5uff_ligand_xtb.xyz
 C   -2.180991   -0.437832    0.736973
 O   -1.842812    0.470160   -0.310219
 C   -3.623112   -0.121950    1.183697
 O   -3.774329    1.208982    1.597886
 C   -4.572270   -0.450959    0.026774
 O   -5.913677   -0.247656    0.413765
 C   -4.390545   -1.925162   -0.354555
 O   -4.811865   -2.749936    0.700538
 C   -2.914716   -2.193830   -0.695931
 O   -2.031235   -1.749595    0.333774
 C   -2.662720   -3.681992   -0.890028
 C    0.491531    1.040938   -0.562493
 O    0.966348    0.042436    0.261860
 C   -0.889429    1.463048   -0.028762
 C   -1.379096    2.767544   -0.690379
 O   -2.539074    3.230973   -0.055162
 C   -0.269904    3.829912   -0.615845
 O   -0.136231    4.159079    0.742624
 C    1.012622    3.256701   -1.235314
 O    1.423264    2.105766   -0.532677
 C    2.194150    4.234928   -1.229523
 O    2.448742    4.681973    0.083929
 C    4.084829   -2.635147    0.530990
 O    5.147992   -3.464960    0.220600
 C    4.509521   -1.158237    0.547094
 O    5.511601   -1.001214    1.519267
 C    3.295567   -0.269588    0.832033
 O    3.722303    1.067771    0.736771
 C    2.165291   -0.605744   -0.153588
 C    1.915651   -2.123490   -0.188558
 O    3.109956   -2.831882   -0.452257
 C    0.929442   -2.503344   -1.298257
 O    0.729512   -3.885947   -1.354068
 H   -1.485163   -0.308129    1.575229
 H   -3.870116   -0.751116    2.045534
 H   -3.466049    1.796296    0.881680
 H   -4.320833    0.191330   -0.832169
 H   -5.928818    0.543829    0.969012
 H   -4.994582   -2.134330   -1.253469
 H   -5.656918   -2.390240    1.003857
 H   -2.685288   -1.634689   -1.616490
 H   -3.233787   -4.040381   -1.741104
 H   -2.982494   -4.207639    0.003748
 H   -1.606463   -3.867770   -1.054987
 H    0.378273    0.692666   -1.609823
 H   -0.789468    1.628869    1.051632
 H   -1.654108    2.552103   -1.727597
 H   -2.252215    3.694974    0.746932
 H   -0.578246    4.718987   -1.191785
 H    0.773646    4.454998    0.894275
 H    0.796182    2.991397   -2.284549
 H    3.063530    3.706776   -1.635193
 H    1.950066    5.084262   -1.882788
 H    3.338130    5.044903    0.136179
 H    3.666067   -2.892243    1.528139
 H    5.931251   -3.098137    0.651261
 H    4.903542   -0.903558   -0.450669
 H    5.605387   -0.053587    1.677718
 H    2.929309   -0.474520    1.851842
 H    2.945881    1.622757    0.563001
 H    2.456888   -0.261285   -1.153830
 H    1.501225   -2.428347    0.784612
 H   -0.037778   -2.044312   -1.087465
 H    1.322486   -2.134503   -2.258271
 H    1.601581   -4.301737   -1.323468
