65 
5uff_ligand_ani.xyz
 C   -2.010541   -0.579927    0.699953
 O   -1.711649    0.245692   -0.408340
 C   -3.414080   -0.261538    1.213757
 O   -3.555365    1.080811    1.622642
 C   -4.425710   -0.599667    0.124778
 O   -5.734956   -0.439231    0.636649
 C   -4.270146   -2.049639   -0.311483
 O   -4.623900   -2.906017    0.748672
 C   -2.818302   -2.316057   -0.709199
 O   -1.919578   -1.920508    0.333909
 C   -2.540484   -3.778266   -0.985625
 C    0.501770    1.116765   -0.562958
 O    1.014118    0.112930    0.260075
 C   -0.928817    1.396701   -0.122725
 C   -1.532552    2.602243   -0.843850
 O   -2.791488    2.939157   -0.270180
 C   -0.573360    3.791210   -0.717090
 O   -0.638727    4.158993    0.647872
 C    0.837796    3.391734   -1.163079
 O    1.305495    2.269255   -0.420587
 C    1.857292    4.507132   -1.015627
 O    1.955812    4.875141    0.357438
 C    4.179728   -2.488381    0.525270
 O    5.236238   -3.326101    0.190108
 C    4.558711   -1.009718    0.478415
 O    5.569073   -0.813620    1.441807
 C    3.353242   -0.127763    0.746427
 O    3.776574    1.204727    0.561800
 C    2.205095   -0.516012   -0.190008
 C    1.968985   -2.028020   -0.172070
 O    3.173915   -2.742688   -0.412935
 C    1.005084   -2.483893   -1.263206
 O    0.829371   -3.884135   -1.224921
 H   -1.264451   -0.416129    1.485462
 H   -3.619045   -0.884661    2.088253
 H   -3.395628    1.645838    0.838536
 H   -4.257816    0.067549   -0.737635
 H   -5.708796    0.359199    1.186496
 H   -4.912630   -2.231791   -1.190979
 H   -5.439964   -2.535259    1.117974
 H   -2.599250   -1.711511   -1.604889
 H   -3.165843   -4.137331   -1.811168
 H   -2.765410   -4.374332   -0.097107
 H   -1.481877   -3.910202   -1.246651
 H    0.507039    0.788041   -1.617916
 H   -0.927268    1.618077    0.954729
 H   -1.703750    2.353325   -1.896504
 H   -2.589482    3.588720    0.427498
 H   -0.927869    4.623794   -1.348487
 H    0.218491    4.546612    0.895115
 H    0.795702    3.116940   -2.228768
 H    2.828285    4.160865   -1.394254
 H    1.523012    5.359060   -1.624636
 H    2.424510    5.715166    0.419506
 H    3.804630   -2.724907    1.545428
 H    5.975074   -3.085336    0.769238
 H    4.930730   -0.793750   -0.536811
 H    5.780608    0.130037    1.426805
 H    3.014357   -0.291547    1.786390
 H    2.988938    1.764937    0.453546
 H    2.464875   -0.194300   -1.210580
 H    1.565601   -2.314523    0.814053
 H    0.023061   -2.023897   -1.122998
 H    1.396710   -2.173685   -2.245305
 H    1.715732   -4.271664   -1.196499
