63 
5ufo_ligand_ani.xyz
 C    4.141739    0.951522   -0.883911
 C    4.529733   -0.980581    0.508478
 C   -2.206911   -2.639536   -1.639591
 C   -3.887337    0.896409    0.923726
 C   -0.989411   -2.821413   -2.243810
 C    5.358109    1.490823   -0.485389
 C    5.747715   -0.452970    0.914875
 C   -4.254186    2.209972    0.663374
 C   -1.250241   -1.062669   -0.097089
 C   -4.726448    0.310665   -1.230694
 C   -2.593823   -2.333822    2.426714
 C   -4.326589   -2.377261    3.638844
 C    0.024177   -1.252781   -0.684803
 C    3.717868   -0.279577   -0.383901
 C    2.422629   -0.861047   -0.823173
 C   -2.349535   -1.761929   -0.539391
 C   -4.130986   -0.087244   -0.030601
 C    0.161323   -2.135779   -1.776982
 C    6.142488    0.787462    0.423245
 C    1.216057   -0.626759   -0.220347
 C   -4.843471    2.480305   -0.565913
 C   -3.625158   -1.937049    1.603853
 C    2.402747   -1.752029   -1.948928
 C   -6.082206   -1.524010    2.077288
 C    3.635541   -2.802449   -3.652673
 C    7.254191    2.433745    2.413695
 C   -3.704664   -1.546951    0.144690
 C   -5.256674    3.889233   -0.925735
 N   -3.037511   -2.608011    3.687233
 N   -5.075837    1.561863   -1.502670
 N    1.351645   -2.362639   -2.409203
 N   -4.746789   -1.983998    2.409113
 O    8.136906    2.430292   -0.051957
 O    8.543322    0.387644    1.410756
 O   -4.707439   -2.331061   -0.502441
 O    3.596447   -1.932174   -2.532886
 F   -4.556276    4.354371   -1.971214
 F   -6.554339    3.956475   -1.254384
 F   -5.054428    4.735491    0.103167
 S    7.689429    1.484853    0.966084
Cl    1.120579    0.430107    1.153844
 H    3.512531    1.482712   -1.592618
 H    4.198754   -1.946529    0.879805
 H   -3.076142   -3.167821   -2.021065
 H   -3.425331    0.634759    1.876000
 H   -0.866952   -3.495514   -3.086198
 H    5.709385    2.440286   -0.878270
 H    6.398253   -0.995064    1.594593
 H   -4.088074    2.999760    1.386848
 H   -1.353133   -0.364949    0.731149
 H   -4.934654   -0.419658   -2.007931
 H   -1.550993   -2.450672    2.171008
 H   -5.021414   -2.485311    4.463739
 H   -6.771806   -1.953343    2.805616
 H   -6.146022   -0.430170    2.121344
 H   -6.356731   -1.863965    1.078924
 H    2.982762   -2.433737   -4.449586
 H    3.305041   -3.806576   -3.370610
 H    4.675882   -2.815171   -3.979413
 H    6.550600    3.220565    2.134605
 H    8.183057    2.872390    2.785869
 H    6.822974    1.770509    3.166263
 H   -4.497813   -3.252820   -0.295054
