38 
5ufp_ligand_ani.xyz
 N   -7.214972   -1.501038   -1.985993
 C   -6.384640   -1.081289   -1.296175
 C   -5.351327   -0.557367   -0.435021
 C   -4.199315   -0.004662   -1.002168
 C   -3.201555    0.472307   -0.163767
 C   -3.331928    0.430827    1.221432
 C   -4.497922   -0.108374    1.746344
 F   -4.640053   -0.148987    3.079218
 C   -5.514692   -0.610450    0.950378
 O   -2.081108    1.042095   -0.734771
 C   -0.885288    0.377242   -0.588333
 C    0.259479    1.162018   -0.568772
 C    0.328023    2.660662   -0.656868
 C    1.744999    2.945727   -0.183202
 F    2.311238    4.012261   -0.797420
 F    1.718195    3.247876    1.164900
 C    1.521738    0.586234   -0.459084
 C    2.582805    1.662943   -0.367230
 O    3.551792    1.496218    0.634321
 C    1.638787   -0.807844   -0.475682
 C    0.487711   -1.585654   -0.483666
 C   -0.777532   -1.006970   -0.526645
 S    3.182618   -1.665301   -0.642555
 O    4.027950   -0.946139   -1.587547
 O    2.864505   -3.074837   -0.817000
 C    3.968897   -1.518062    0.999554
 F    4.899875   -2.478040    1.065893
 F    3.042416   -1.717702    1.957496
 H   -4.071689    0.041984   -2.077535
 H   -2.557289    0.813733    1.878107
 H   -6.406107   -1.027527    1.405477
 H    0.196467    3.004240   -1.688847
 H   -0.411596    3.164404   -0.029800
 H    3.113816    1.734259   -1.323627
 H    3.153237    1.763084    1.476843
 H    0.604328   -2.664732   -0.474444
 H   -1.667753   -1.627505   -0.528814
 H    4.409902   -0.530945    1.088098
