62 
5ufs_ligand_ani.xyz
 C    5.479187    0.714429   -1.137232
 C    4.901180   -0.520142   -1.696396
 C    3.913588   -1.181476   -1.077759
 C    3.259436   -0.765793    0.203008
 C    3.448628   -1.927679    1.209914
 C    3.911854    0.478722    0.772522
 C    3.298247    0.970469    2.055043
 C    1.801147    1.257571    1.867186
 C    1.034252    0.065137    1.267678
 C    1.737269   -0.404703   -0.031135
 C    0.955804   -1.419612   -0.882497
 C   -0.533056   -1.039787   -1.046213
 C   -1.217867   -0.716993    0.283973
 C   -1.300712   -1.945479    1.199458
 C   -0.411920    0.439364    0.932613
 C   -1.346458    0.970670    2.023384
 C   -2.705032    1.005435    1.299060
 C   -2.629516   -0.037349    0.133720
 C   -3.244018    2.020591   -0.698369
 C   -4.767530    1.994007   -0.791391
 C   -2.637317    3.098571   -1.573236
 C   -3.819767   -1.001971    0.115696
 C   -4.309362   -1.578556   -1.204275
 C    4.905034    1.140176    0.151762
 F    1.747361    0.742858   -0.881179
 O    6.372563    1.333054   -1.697039
 O    1.124399   -2.710079   -0.322052
 O   -2.684603    0.765178   -1.048107
 O   -2.834529    2.253739    0.635700
 O   -5.529591   -2.236581   -1.045872
 O   -4.389677   -1.324796    1.141465
 H    5.321976   -0.864016   -2.632901
 H    3.535924   -2.111348   -1.498692
 H    4.507479   -1.987060    1.481913
 H    2.868446   -1.769286    2.119476
 H    3.140167   -2.872171    0.763481
 H    3.822936    1.869176    2.397276
 H    3.427207    0.208396    2.834612
 H    1.695987    2.098097    1.171209
 H    1.355776    1.558975    2.823471
 H    1.036844   -0.762879    1.990413
 H    1.418908   -1.382780   -1.878270
 H   -0.580280   -0.164821   -1.698620
 H   -1.068000   -1.853297   -1.558810
 H   -1.800778   -2.765960    0.674221
 H   -1.885043   -1.738585    2.101036
 H   -0.311479   -2.300889    1.492456
 H   -0.341906    1.223881    0.165925
 H   -1.089838    1.979995    2.357646
 H   -1.366259    0.308554    2.897052
 H   -3.564680    0.834143    1.960599
 H   -5.073608    1.832451   -1.830088
 H   -5.165246    2.955569   -0.452865
 H   -5.200002    1.201176   -0.170802
 H   -3.014128    4.078509   -1.265915
 H   -1.549720    3.089524   -1.468211
 H   -2.895987    2.928743   -2.622659
 H   -3.532167   -2.258988   -1.595121
 H   -4.395070   -0.765267   -1.934784
 H    5.318341    2.045654    0.590651
 H    0.507120   -3.303700   -0.766188
 H   -5.656097   -2.335244   -0.088741
