60 
5ug9_ligand_ani.xyz
 C   -0.277869    2.485102   -1.750411
 C    1.385744    0.915143   -0.813917
 C    0.751953   -1.290799   -0.609725
 C    2.934456   -0.514491   -0.119326
 N    4.128467   -1.042132    0.315246
 C    3.908371   -2.393548    0.449215
 C    5.360310   -0.288632    0.575158
 C    5.771491   -0.404798    2.040873
 C   -2.352664   -1.066371   -1.099301
 C   -4.830424   -0.688904   -1.221874
 C   -1.029894    3.143972   -0.589625
 C    0.083562    4.009258    0.031586
 C    1.410544    3.287746   -0.288428
 N    1.027095    2.184903   -1.169942
 N    0.426424   -0.037569   -0.919447
 C    2.065651   -1.595358   -0.215605
 N    2.643520    0.761330   -0.371567
 N    2.692907   -2.771858    0.149146
 C    6.480479   -0.738994   -0.359113
 N   -0.176486   -2.286007   -0.651587
 C   -1.561694   -2.104020   -0.686174
 N   -3.640669   -1.433625   -0.893751
 N   -3.740789   -2.693359   -0.388044
 C   -2.492767   -3.087286   -0.261631
 O   -2.085786   -4.279082    0.209018
 C   -3.118068   -5.163278    0.628640
 F    0.075996    5.235303   -0.629162
 N   -1.516323    2.133502    0.326087
 C   -2.676638    2.310099    1.019524
 C   -3.097196    1.127586    1.877528
 C   -4.052143    1.541075    2.987261
 O   -3.328948    3.342084    0.954695
 H   -0.148335    3.193544   -2.577454
 H   -0.757951    1.581317   -2.122286
 H    4.696459   -3.060341    0.778997
 H    5.103077    0.751513    0.354551
 H    6.642007    0.230827    2.235043
 H    4.958134   -0.088488    2.698907
 H    6.042605   -1.436606    2.294823
 H   -2.100201   -0.096930   -1.510246
 H   -5.360170   -1.137276   -2.069132
 H   -4.528034    0.329281   -1.483665
 H   -5.502628   -0.652653   -0.357424
 H   -1.865374    3.776234   -0.887388
 H   -0.072596    4.202031    1.095431
 H    1.927447    2.899761    0.595525
 H    2.070177    3.998521   -0.797725
 H    6.173002   -0.651306   -1.404252
 H    7.367829   -0.115834   -0.204855
 H    6.760704   -1.781358   -0.165492
 H    0.146231   -3.196853   -0.338393
 H   -3.780140   -5.417326   -0.205187
 H   -2.608197   -6.057895    0.990678
 H   -3.712999   -4.717038    1.431794
 H   -1.046867    1.234304    0.353429
 H   -2.204932    0.637587    2.287982
 H   -3.572413    0.391566    1.211970
 H   -4.380460    0.670063    3.562521
 H   -4.930008    2.040665    2.570019
 H   -3.570672    2.243647    3.673685
