71 
5uga_ligand_ani.xyz
 C    1.039010    3.908778   -0.621686
 C    0.170652    3.383226   -1.763388
 C   -0.249426    1.982580   -1.304323
 C    0.943760    1.493306   -0.452617
 C   -2.292095    0.952331   -0.401210
 C    0.365633   -1.953712   -1.718970
 C    2.362984   -2.441055   -0.437475
 C    4.371924   -1.214229   -0.959193
 C    5.757228   -0.832093   -0.467554
 C    6.948756    0.323627    1.326738
 C    3.697653   -1.592829    1.344379
 C    3.615323    3.968074    0.728187
 C    2.950823    2.643752    0.398092
 O    3.526811    1.579097    0.614083
 N    1.715041    2.702016   -0.152184
 N   -1.490636    2.043514   -0.533205
 N   -1.708812   -0.225408   -0.714543
 C   -2.421484   -1.337720   -0.590108
 N   -1.827966   -2.545538   -0.854954
 C   -0.412532   -2.664637   -0.810765
 C    1.740791   -1.873064   -1.557943
 C    1.598290   -3.313471    0.347318
 C    0.230664   -3.434541    0.156754
 N    3.686881   -2.122144   -0.034433
 N    5.656614   -0.183336    0.864852
 C    5.085216   -1.181521    1.803505
 C   -3.766267   -1.259403   -0.175906
 N   -4.745097   -2.210556    0.037870
 C   -5.771851   -1.509863    0.442110
 N   -5.539231   -0.155116    0.517484
 C   -6.466150    0.898635    0.949369
 C   -6.897079    0.688368    2.399799
 C   -7.673581    0.980554    0.017743
 C   -4.232621    0.021508    0.117641
 N   -3.545817    1.161589    0.032171
 H    0.433198    4.352526    0.179848
 H    1.759889    4.660649   -0.956244
 H   -0.687614    4.025303   -1.981573
 H    0.769713    3.308346   -2.677523
 H   -0.411165    1.300381   -2.145763
 H    1.564065    0.778190   -1.005744
 H    0.594268    0.991818    0.455810
 H   -0.128441   -1.414091   -2.521481
 H    3.797042   -0.280650   -1.076812
 H    4.453443   -1.702397   -1.934721
 H    6.233401   -0.140086   -1.169822
 H    6.392585   -1.723102   -0.384686
 H    6.836611    0.795380    2.306100
 H    7.669280   -0.500426    1.417799
 H    7.342231    1.050143    0.611528
 H    3.030789   -0.717129    1.403267
 H    3.305829   -2.357006    2.017854
 H    4.502038    3.765700    1.327907
 H    2.945954    4.633231    1.280763
 H    3.926898    4.486209   -0.185805
 H   -1.956229    2.931052   -0.422223
 H   -2.382477   -3.351436   -0.586167
 H    2.304062   -1.290531   -2.279960
 H    2.080994   -3.875512    1.141910
 H   -0.345457   -4.066940    0.828256
 H    4.990599    0.600677    0.792748
 H    5.039477   -0.746745    2.808137
 H    5.750276   -2.054447    1.842687
 H   -6.736804   -1.928512    0.703410
 H   -5.890500    1.825570    0.875601
 H   -7.517136    1.529007    2.729102
 H   -6.028409    0.620314    3.059676
 H   -7.487589   -0.229422    2.507609
 H   -8.310203    1.823205    0.308055
 H   -8.277175    0.066607    0.071955
 H   -7.358486    1.126593   -1.018555
