71 
5uga_ligand_dft.xyz
 C    0.959458    3.907136   -0.430309
 C    0.081037    3.522052   -1.619873
 C   -0.317591    2.070523   -1.322557
 C    0.962596    1.489384   -0.687833
 C   -2.262964    0.931929   -0.328429
 C    0.379591   -2.033458   -1.719063
 C    2.364702   -2.447010   -0.398946
 C    4.379029   -1.253935   -0.974675
 C    5.763968   -0.846285   -0.508152
 C    6.952018    0.426212    1.258411
 C    3.684399   -1.515252    1.333341
 C    3.587829    3.835180    0.821893
 C    2.918417    2.568959    0.339506
 O    3.503494    1.467425    0.404928
 N    1.688999    2.661813   -0.170585
 N   -1.455530    2.052989   -0.417154
 N   -1.674202   -0.236418   -0.640994
 C   -2.396124   -1.355192   -0.551665
 N   -1.811651   -2.566456   -0.827906
 C   -0.401960   -2.690860   -0.778257
 C    1.749341   -1.903694   -1.530571
 C    1.597535   -3.264342    0.439964
 C    0.225577   -3.368579    0.266321
 N    3.703057   -2.112571   -0.010660
 N    5.659127   -0.138929    0.806289
 C    5.064508   -1.088877    1.796437
 C   -3.737650   -1.274158   -0.155877
 N   -4.712133   -2.229064    0.049532
 C   -5.741899   -1.532024    0.447432
 N   -5.508436   -0.174633    0.530249
 C   -6.448944    0.883905    0.907121
 C   -7.021650    0.629697    2.299805
 C   -7.533890    1.038358   -0.157727
 C   -4.208143    0.003792    0.140783
 N   -3.517769    1.146835    0.069196
 H    0.358477    4.185391    0.443400
 H    1.643696    4.725816   -0.660927
 H   -0.775661    4.188098   -1.750633
 H    0.672976    3.554998   -2.539871
 H   -0.553430    1.516605   -2.237634
 H    1.579971    0.980459   -1.434189
 H    0.734220    0.775277    0.104564
 H   -0.100140   -1.556708   -2.565617
 H    3.813027   -0.331345   -1.174122
 H    4.493345   -1.797619   -1.916760
 H    6.217633   -0.158916   -1.225568
 H    6.423564   -1.706265   -0.361143
 H    6.802949    0.933790    2.212507
 H    7.676940   -0.381397    1.377474
 H    7.309005    1.137755    0.512440
 H    3.009608   -0.648327    1.369534
 H    3.325264   -2.250962    2.053517
 H    4.474115    3.566999    1.398018
 H    2.923308    4.436766    1.447881
 H    3.899841    4.453694   -0.027056
 H   -2.004339    2.901190   -0.381925
 H   -2.372454   -3.364209   -0.557457
 H    2.307187   -1.331900   -2.261444
 H    2.065094   -3.781535    1.271680
 H   -0.367155   -3.934283    0.979467
 H    4.964121    0.641278    0.689040
 H    4.997460   -0.576397    2.758564
 H    5.750943   -1.936376    1.881935
 H   -6.707037   -1.950285    0.700450
 H   -5.838882    1.791763    0.930639
 H   -7.654366    1.470308    2.599470
 H   -6.222152    0.517189    3.037445
 H   -7.640250   -0.274368    2.317931
 H   -8.187179    1.879928    0.091369
 H   -8.153672    0.137087   -0.220719
 H   -7.089330    1.221377   -1.139930
