85 
5ugd_ligand_ani.xyz
 C   -9.630823   -0.695110    0.796678
 C   -8.406422   -1.050689   -0.043355
 C   -7.259663   -1.611109    0.799149
 C   -6.024203   -2.031851   -0.002106
 C   -5.293386   -0.868433   -0.675700
 C   -4.064706   -1.273142   -1.493852
 C   -2.914773   -1.837917   -0.661060
 C   -1.674667   -2.204917   -1.482397
 N   -1.063987   -1.076043   -2.173935
 C   -0.287644   -0.181785   -1.514572
 O    0.034357   -0.355645   -0.343344
 C    0.180120    1.027802   -2.353285
 N    0.606353    2.110526   -1.496820
 C   -0.328665    2.976472   -0.987117
 O   -1.467289    3.014586   -1.429210
 C    0.126660    3.935020    0.126812
 C    1.342601    3.449961    0.927349
 C    1.062938    2.125234    1.660647
 C   -0.440936    1.912467    1.905153
 C   -0.707434    0.805565    2.929566
 N   -0.237814   -0.522163    2.437898
 C   -1.084195    3.244678    2.278676
 C   -1.048637    4.223080    1.085677
 C    1.294721    0.634515   -3.348407
 C    2.551320    0.125459   -2.683354
 C    2.694707   -1.218539   -2.340393
 C    3.797246   -1.673870   -1.628483
 C    3.587486    1.000801   -2.345984
 C    4.697469    0.563441   -1.639242
 C    4.791689   -0.772992   -1.249938
 O    5.899025   -1.110439   -0.518052
 C    5.784888   -2.184527    0.412150
 C    4.677836   -1.986829    1.420397
 C    3.736986   -2.981825    1.673404
 C    2.669446   -2.702704    2.519052
 N    2.494798   -1.521577    3.114018
 C    3.420228   -0.580124    2.896839
 C    4.519357   -0.762668    2.068800
 H  -10.439961   -0.296944    0.175861
 H   -9.382655    0.062470    1.549422
 H  -10.015531   -1.574242    1.326779
 H   -8.072735   -0.157947   -0.586802
 H   -8.684914   -1.789210   -0.807668
 H   -6.966696   -0.862779    1.550815
 H   -7.630632   -2.478989    1.361555
 H   -5.336802   -2.557621    0.672452
 H   -6.320281   -2.763702   -0.768702
 H   -5.987741   -0.338305   -1.339756
 H   -4.991906   -0.140250    0.091978
 H   -4.362613   -2.010430   -2.254273
 H   -3.706925   -0.391234   -2.040589
 H   -3.238007   -2.736825   -0.121021
 H   -2.620223   -1.104372    0.103375
 H   -0.916386   -2.627129   -0.818095
 H   -1.920582   -2.961483   -2.234666
 H   -1.301108   -0.905024   -3.138586
 H   -0.676324    1.399749   -2.923881
 H    1.421316    1.920001   -0.931224
 H    0.390726    4.865144   -0.396685
 H    2.234178    3.375130    0.292695
 H    1.578807    4.227556    1.663839
 H    1.590286    2.143095    2.627260
 H    1.466239    1.272442    1.101461
 H   -0.916880    1.566438    0.979477
 H   -0.203821    1.031997    3.872464
 H   -1.777776    0.738747    3.132385
 H   -0.225917   -0.525684    1.399950
 H   -0.861294   -1.281435    2.759903
 H    0.718307   -0.722579    2.801483
 H   -0.546367    3.673863    3.137279
 H   -2.119794    3.090867    2.609112
 H   -0.969419    5.250407    1.458762
 H   -1.970667    4.156007    0.502363
 H    0.897542   -0.121093   -4.038114
 H    1.522040    1.522270   -3.949195
 H    1.913880   -1.926265   -2.614673
 H    3.866603   -2.723053   -1.358394
 H    3.514515    2.050497   -2.629680
 H    5.498267    1.242813   -1.364072
 H    5.647550   -3.136112   -0.118437
 H    6.767360   -2.213034    0.892654
 H    3.813002   -3.957867    1.201413
 H    1.903665   -3.451491    2.708485
 H    3.247824    0.368737    3.401392
 H    5.230386    0.040877    1.909987
