65 
5uhi_ligand_xtb.xyz
 C    2.444009   -0.908936   -2.198004
 C   -4.198981   -0.411002    2.117551
 C   -4.448833   -1.455677   -0.016961
 C    4.369582    0.361035    1.032137
 C    5.764252    0.253970   -0.909554
 C    1.530521   -1.925078   -2.248423
 C   -5.225782    0.465852    1.818170
 C   -5.473943   -0.587855   -0.327630
 C    5.382575   -0.183510    1.796886
 C    6.785857   -0.295016   -0.154635
 C   -8.500976    2.762626    0.229341
 C    1.342831    0.045429   -0.287194
 C   -8.434170    2.068457   -0.989856
 C    3.397712    3.255364    0.436647
 C   -7.514304    2.201008    0.998397
 C    1.697007    4.252762   -0.340175
 C    0.397735   -0.991647   -0.307955
 C   -3.799737   -1.381912    1.211154
 C    4.554561    0.599193   -0.325168
 C    2.352213    0.091066   -1.216836
 C   -1.545045   -2.165224    0.561145
 C    0.489070   -1.996873   -1.306308
 C   -5.873749    0.381312    0.590865
 C    6.591328   -0.505644    1.198927
 C   -0.666978   -1.117276    0.620519
 C    2.906030    2.451483   -0.560173
 C   -1.347258   -3.099174   -0.503051
 C    0.962599    2.701661   -2.143580
 C   -2.001764   -5.038357   -1.633182
 C   -2.679775   -2.339023    1.530462
 C    3.417932    1.174986   -1.165394
 N    2.629812    4.364843    0.564911
 N   -7.485749    1.159968   -0.962642
 N   -0.388806   -3.017439   -1.380787
 N   -6.922711    1.238377    0.247180
 N    1.813118    3.116735   -1.063391
 O    3.832417    1.439260   -2.503033
 O   -2.218314   -4.116265   -0.581606
Cl    7.862165   -1.186677    2.151993
Cl   -0.847691    0.079609    1.853835
 H    3.244643   -0.851282   -2.917886
 H   -3.706058   -0.335093    3.075755
 H   -4.149417   -2.208856   -0.730178
 H    3.428169    0.603513    1.498479
 H    5.912566    0.401710   -1.968729
 H    1.587791   -2.696102   -2.999947
 H   -5.510156    1.209252    2.545833
 H   -5.986016   -0.639563   -1.274835
 H    5.237244   -0.359989    2.850888
 H    7.724805   -0.558556   -0.615274
 H   -9.171759    3.552340    0.498268
 H    1.258768    0.807854    0.473367
 H   -9.034489    2.198462   -1.868256
 H    4.251998    3.100435    1.064450
 H   -7.213531    2.420569    2.001546
 H    0.921231    4.972642   -0.510178
 H    0.168859    2.041629   -1.784016
 H    1.549941    2.166565   -2.889224
 H    0.511247    3.582169   -2.599788
 H   -2.789962   -5.782910   -1.544748
 H   -1.019605   -5.505119   -1.537330
 H   -2.055132   -4.535402   -2.600825
 H   -3.044343   -3.364826    1.457949
 H   -2.320600   -2.159301    2.545685
 H    4.478146    2.154666   -2.478573
