65 
5uhi_ligand_ani.xyz
 C    2.358850   -0.896176   -2.251650
 C   -4.141197   -0.154053    1.957739
 C   -4.791113   -1.629993    0.180079
 C    4.506904    0.079397    0.986255
 C    5.954788    0.295226   -0.910896
 C    1.371421   -1.844993   -2.330752
 C   -5.182059    0.703932    1.634219
 C   -5.831643   -0.779263   -0.157968
 C    5.545938   -0.462691    1.733635
 C    7.007577   -0.238800   -0.177352
 C   -8.766861    2.688819    0.327014
 C    1.388653    0.004932   -0.240609
 C   -8.560127    2.184279   -0.976668
 C    3.449361    3.063741    0.609966
 C   -7.814731    2.058383    1.087642
 C    1.976961    4.264067   -0.320358
 C    0.369118   -0.982812   -0.286428
 C   -3.933748   -1.332979    1.242985
 C    4.695931    0.473118   -0.339462
 C    2.373191    0.052397   -1.202230
 C   -1.627183   -2.085782    0.589663
 C    0.346831   -1.904994   -1.354472
 C   -6.032658    0.387116    0.578291
 C    6.795902   -0.612136    1.145100
 C   -0.657125   -1.126045    0.691513
 C    3.078562    2.374382   -0.522330
 C   -1.546819   -2.919369   -0.576700
 C    1.320589    2.856888   -2.282636
 C   -2.474837   -4.697704   -1.813414
 C   -2.772302   -2.249767    1.568439
 C    3.527022    1.068064   -1.137842
 N    2.762855    4.237203    0.728767
 N   -7.567608    1.309628   -1.016951
 N   -0.625245   -2.858146   -1.489708
 N   -7.110331    1.249640    0.248057
 N    2.128074    3.178334   -1.121528
 O    3.930452    1.303422   -2.486881
 O   -2.528502   -3.836864   -0.681355
Cl    8.107018   -1.279813    2.072801
Cl   -0.641536   -0.047040    2.055394
 H    3.140366   -0.862306   -3.004721
 H   -3.488308    0.104241    2.787838
 H   -4.639006   -2.541105   -0.388861
 H    3.531376    0.203709    1.457080
 H    6.119746    0.561631   -1.950760
 H    1.342603   -2.570016   -3.138632
 H   -5.320159    1.627270    2.189056
 H   -6.491541   -1.005139   -0.989026
 H    5.392687   -0.760777    2.765278
 H    7.988114   -0.366677   -0.627544
 H   -9.508820    3.401779    0.656585
 H    1.371803    0.728852    0.570048
 H   -9.096817    2.420464   -1.886765
 H    4.187708    2.768281    1.341791
 H   -7.605306    2.090158    2.147839
 H    1.273155    5.051300   -0.565798
 H    0.549692    2.117807   -2.035297
 H    1.949831    2.470499   -3.084797
 H    0.838785    3.777039   -2.616718
 H   -3.339014   -5.356421   -1.723115
 H   -1.546431   -5.275657   -1.815485
 H   -2.524165   -4.117418   -2.738935
 H   -3.099845   -3.292887    1.543746
 H   -2.416317   -2.047942    2.583429
 H    4.535672    2.057630   -2.454770
