43 
5uir_ligand_dft.xyz
 C    0.352557    1.335820   -0.035255
 C    0.581182   -0.063476   -0.015502
 C    1.282720    3.609834   -0.006399
 C   -2.176684    1.051759   -0.053905
 C    2.769000    1.638007   -0.056678
 C    1.474226    2.205826   -0.037341
 C   -3.132938    1.141246    0.962682
 C   -4.494532   -0.519121   -0.130916
 C   -5.678182   -1.332305   -0.166680
 C    1.641861   -4.188327   -0.451392
 C    1.047122   -2.883639    0.053337
 C    0.527798   -2.995307    1.481612
 O    2.107792   -1.922566   -0.024949
 C    1.853798   -0.586094   -0.029681
 C    0.019078    4.136157    0.036218
 C   -1.100269    3.276200    0.030219
 C   -0.960124    1.906262   -0.018109
 C   -2.404773    0.166723   -1.115715
 C   -3.549539   -0.614528   -1.158845
 C   -4.284130    0.365959    0.930539
 N   -6.630812   -1.992232   -0.195185
 C    2.991781    0.283828   -0.058895
 C    4.451774   -0.122637   -0.085881
 O    5.328856    0.729859   -0.088551
 N    4.742303   -1.445329   -0.112577
 H   -0.276703   -0.719626    0.031171
 H    2.155699    4.256585   -0.011644
 H    3.642667    2.282597   -0.067322
 H   -2.961888    1.819252    1.793249
 H    2.463769   -4.509974    0.197456
 H    0.880183   -4.973608   -0.452162
 H    2.022799   -4.070457   -1.469632
 H    0.243921   -2.574633   -0.626971
 H   -0.289467   -3.721850    1.527792
 H    1.331400   -3.333367    2.143627
 H    0.156519   -2.037892    1.855864
 H   -0.131205    5.210589    0.063644
 H   -2.099549    3.703232    0.038755
 H   -1.677495    0.101723   -1.919435
 H   -3.722532   -1.293237   -1.987426
 H   -5.018354    0.437129    1.726032
 H    5.717376   -1.699015   -0.125698
 H    4.018873   -2.145991   -0.095455
