46 
5uit_ligand_ani.xyz
 N   -4.764988   -1.250178   -0.109653
 C   -1.857618   -0.464461   -0.020133
 N    3.971917   -0.784302    0.915743
 C   -1.415778    2.321955    0.026465
 C   -0.340033    1.422916    0.076122
 C    0.172941    4.115263    0.162373
 C    4.273903   -0.131177   -1.293170
 C   -1.125801    3.713941    0.072253
 C   -4.436844    0.064000   -0.173360
 C   -2.723698    1.789511   -0.059728
 O   -5.287124    0.935821   -0.281672
 C   -2.968472    0.436524   -0.084574
 O   -2.101202   -1.807482   -0.060095
 C   -1.059141   -2.719911    0.312114
 C   -1.751396   -3.956180    0.858748
 C   -0.172204   -3.037632   -0.884964
 N    1.238435    3.261839    0.202293
 C    0.980590    1.987986    0.150149
 C   -0.571262    0.032594    0.066350
 O    1.975485    1.084502    0.151250
 C    3.305660    1.558543    0.378473
 C    4.286676    0.408697    0.149958
 C    3.305453   -1.751978    0.210664
 O    2.808945   -2.762987    0.668373
 C    3.297954   -1.310590   -1.246230
 H   -5.739053   -1.474631   -0.239824
 H   -4.056560   -1.965625   -0.125752
 H    3.909420   -0.773477    1.924208
 H    0.426136    5.172317    0.203535
 H    3.990790    0.631016   -2.025341
 H    5.278246   -0.480543   -1.547825
 H   -1.933870    4.439946    0.039195
 H   -3.583997    2.449198   -0.108461
 H   -0.470725   -2.249627    1.109265
 H   -2.363630   -4.416524    0.075237
 H   -2.400453   -3.697074    1.701105
 H   -1.016029   -4.692530    1.200426
 H    0.769942   -3.478124   -0.541770
 H   -0.674372   -3.733480   -1.565093
 H    0.057946   -2.130228   -1.451703
 H    0.288639   -0.621739    0.130006
 H    3.383465    1.927525    1.406945
 H    3.512643    2.389155   -0.303090
 H    5.282018    0.777178    0.425447
 H    2.277859   -1.003818   -1.492225
 H    3.569625   -2.139267   -1.904864
