41 
5ujv_ligand_dft.xyz
 C    4.751651   -0.528109   -0.409565
 C    3.423992   -0.534929    0.310179
 C    2.568771    0.705680    0.018177
 C    1.179811    0.499266    0.557878
 C    0.077315    0.463070   -0.185386
 C    3.197036    1.971635    0.616002
 C   -1.323723    0.258433    0.355121
 O   -1.346517    0.385530    1.776108
 C   -2.265207    1.331385   -0.222443
 C   -3.553923    1.076086   -0.484037
 C   -4.177216   -0.246176   -0.268592
 O   -5.327724   -0.464472   -0.600251
 C   -3.319077   -1.272935    0.433873
 O    5.587548   -1.461496    0.084866
 C   -1.831177   -1.189341    0.050342
 O    5.055842    0.187069   -1.334569
 C   -1.694435    2.711105   -0.412594
 C   -1.660586   -1.528591   -1.440349
 C   -1.046475   -2.213667    0.878780
 H    3.605804   -0.651006    1.385099
 H    2.896809   -1.443986   -0.007406
 H    2.516556    0.825891   -1.069980
 H    1.091447    0.363012    1.636597
 H    0.158088    0.584320   -1.265237
 H    3.282837    1.886413    1.706490
 H    4.194289    2.141431    0.200886
 H    2.580539    2.848031    0.392994
 H   -1.060606    1.281023    1.997395
 H   -4.215448    1.849854   -0.866758
 H   -3.724698   -2.267787    0.225781
 H   -3.420427   -1.090930    1.511616
 H    6.396421   -1.413681   -0.449829
 H   -1.160026    3.051638    0.483455
 H   -2.480817    3.436519   -0.634904
 H   -0.963896    2.732977   -1.228725
 H   -2.145150   -2.487136   -1.653749
 H   -2.108759   -0.775484   -2.096889
 H   -0.602999   -1.627480   -1.704551
 H   -1.398910   -3.223641    0.641267
 H   -1.178572   -2.044242    1.949673
 H    0.023785   -2.166260    0.653230
