61 
5ukk_ligand_xtb.xyz
 O   -3.158536   -1.753109    0.250038
 C   -3.649895   -0.655882    0.011379
 N   -4.961455   -0.447202   -0.083086
 C   -5.922023   -1.504312    0.114629
 C   -7.311149   -0.924856    0.088169
 N   -7.393841    0.376736   -0.151954
 C   -8.586679    0.945801   -0.190997
 C   -9.764329    0.244858    0.007760
 C   -9.680736   -1.117130    0.258636
 C   -8.433677   -1.717131    0.300338
 C   -2.739039    0.524826   -0.196252
 C   -3.081484    1.856998   -0.391038
 F   -4.364912    2.252601   -0.425796
 C   -1.383322    0.211819   -0.170792
 C   -0.382849    1.153791   -0.322977
 C   -0.770112    2.477676   -0.517744
 C   -2.106110    2.827360   -0.553102
 C    1.091853    0.809917   -0.282965
 C    1.539055    0.348321    1.124266
 C    1.250077   -1.133028    1.367024
 N    1.884809   -1.925889    0.287860
 C    1.273653   -1.642098   -1.031613
 C    1.515442   -0.180848   -1.382061
 C    3.024918    0.645347    1.389253
 O    3.827319   -0.168208    0.547261
 C    5.200864    0.038230    0.515116
 C    5.870443   -0.712155   -0.461548
 C    7.228559   -0.550189   -0.544757
 O    8.103593   -1.146376   -1.393206
 C    9.380346   -0.621297   -1.070705
 O    9.244974    0.287165    0.002652
 C    7.919212    0.322367    0.306422
 C    7.261458    1.050582    1.263154
 C    5.876325    0.896334    1.360395
 H   -5.405879    0.450176   -0.254759
 H   -5.814961   -2.262706   -0.672127
 H   -5.731970   -2.007644    1.070698
 H   -8.586142    2.008906   -0.390526
 H  -10.717096    0.747317   -0.032110
 H  -10.574095   -1.701814    0.419629
 H   -8.327530   -2.773549    0.492821
 H   -1.187524   -0.836763   -0.020560
 H   -0.023507    3.246862   -0.645480
 H   -2.409512    3.850918   -0.704777
 H    1.623140    1.743603   -0.489918
 H    0.973126    0.926936    1.859751
 H    1.672081   -1.439629    2.326639
 H    0.177188   -1.326612    1.383908
 H    1.847412   -2.925605    0.498634
 H    2.875344   -1.581441    0.260725
 H    0.209997   -1.877847   -0.990924
 H    1.738119   -2.283097   -1.783221
 H    2.579393   -0.042380   -1.580614
 H    0.974508    0.056233   -2.297831
 H    3.257604    0.435184    2.441832
 H    3.231186    1.703544    1.195489
 H    5.340774   -1.377450   -1.122028
 H   10.052319   -1.442175   -0.779908
 H    9.795001   -0.101028   -1.947388
 H    7.790870    1.719392    1.918801
 H    5.354172    1.464172    2.111764
