57 
5ul1_ligand_dft.xyz
 C    4.566662    0.476074    1.074945
 C    6.012216    0.975429    0.977056
 C    7.735932    1.861238   -0.560109
 O    5.130040   -1.700497   -0.327204
 O   -5.932874   -0.660503    0.062078
 C   -1.520041   -2.210492   -0.109093
 C   -1.940251   -3.546643   -0.099498
 C   -4.135194   -2.927176    0.010114
 C   -3.723354   -1.555531   -0.025341
 C   -4.725846   -0.434623    0.015738
 C   -4.779141    2.060990    0.032314
 C   -3.938416    3.177901   -0.014441
 C   -4.472155    4.458859    0.018023
 C   -5.849928    4.641861    0.097606
 C   -6.682049    3.528244    0.142567
 C   -6.163027    2.237338    0.110772
 N    6.285231    1.854174   -0.217269
 C    4.372733   -0.327899    2.356823
 O    4.416482    0.418892   -1.528519
 C    2.251441   -2.288126    0.185324
 C    5.750563    3.234070   -0.048073
 C    2.562980   -1.034479   -0.339144
 C    1.569651   -0.160661   -0.785083
 C    0.245949   -0.555896   -0.699494
 C   -0.100891   -1.811871   -0.177087
 C    0.919715   -2.665078    0.267299
 N   -3.209757   -3.904868   -0.042189
 N   -5.417011   -3.296664    0.089643
 N   -2.442328   -1.240605   -0.087501
 N   -4.159612    0.795685   -0.000336
 S    4.247702   -0.543295   -0.413141
 H    3.845605    1.298466    1.025712
 H    6.680814    0.113410    0.901578
 H    6.277888    1.544827    1.872240
 H    7.892110    2.512087   -1.420769
 H    8.301602    2.231874    0.296873
 H    8.043541    0.844236   -0.805962
 H   -1.222956   -4.361367   -0.168153
 H   -2.861146    3.039758   -0.078615
 H   -3.806914    5.316249   -0.018915
 H   -6.270260    5.641895    0.123903
 H   -7.757990    3.658606    0.205453
 H   -6.815759    1.376642    0.145464
 H    5.754986    1.416024   -1.003536
 H    5.051971   -1.184682    2.387000
 H    3.346332   -0.695438    2.429568
 H    4.563698    0.304674    3.228582
 H    3.039217   -2.957942    0.513662
 H    4.680736    3.184195    0.151943
 H    5.917487    3.788641   -0.971767
 H    6.269818    3.719296    0.780406
 H    1.833253    0.795296   -1.225533
 H   -0.540246    0.098770   -1.057564
 H    0.677774   -3.630334    0.698529
 H   -5.633860   -4.281261    0.092402
 H   -6.133422   -2.580016    0.105280
 H   -3.147648    0.780459   -0.032121
