50 
5ul5_ligand_ani.xyz
 C    1.484962   -0.587275    0.094273
 C    1.955980   -1.946005   -2.275414
 C    0.421495   -0.880292   -0.766379
 C   -1.924950   -0.746646   -1.170997
 C   -3.039870    3.623748   -1.239836
 C   -2.864099    2.128571   -1.493830
 O    3.583147   -0.485308    2.033238
 C    3.972883   -0.649390    0.664678
 C    4.696525    0.633844    0.245272
 C    3.858243    1.910248    0.394590
 N    3.513490    2.173789    1.833697
 C    2.780827   -0.975567   -0.225597
 C    3.009664   -1.659081   -1.423622
 C    0.654528   -1.562825   -1.958595
 O   -0.805124   -0.462022   -0.346759
 C   -3.195047   -0.227928   -0.501574
 C   -3.162274    1.285688   -0.254454
 C   -3.480145   -1.015698    0.786591
 C   -4.845013   -0.738114    1.415531
 C   -5.136226   -1.649265    2.606513
 H    1.269984   -0.052241    1.014187
 H    2.139697   -2.479485   -3.205619
 H   -1.790263   -0.283146   -2.159131
 H   -1.999390   -1.834025   -1.320897
 H   -2.374509    3.966154   -0.438491
 H   -2.811290    4.209817   -2.136046
 H   -4.068259    3.857181   -0.940509
 H   -1.837701    1.943188   -1.834933
 H   -3.525738    1.814005   -2.313520
 H    3.034172   -1.243931    2.269847
 H    4.688464   -1.483235    0.598128
 H    5.607430    0.724652    0.849991
 H    5.020153    0.537758   -0.795812
 H    4.404477    2.764689   -0.002810
 H    2.923585    1.814371   -0.157019
 H    4.301976    2.653562    2.303121
 H    3.365475    1.245236    2.281494
 H    2.660461    2.749595    1.916026
 H    4.021351   -1.969014   -1.679598
 H   -0.156579   -1.798679   -2.640097
 H   -4.010123   -0.435177   -1.214892
 H   -2.420462    1.510986    0.523690
 H   -4.136148    1.597636    0.146780
 H   -3.407703   -2.090323    0.563859
 H   -2.686865   -0.804417    1.516628
 H   -5.628019   -0.866455    0.655340
 H   -4.900946    0.307190    1.742809
 H   -6.110523   -1.424432    3.052825
 H   -5.140622   -2.703777    2.306877
 H   -4.375590   -1.529652    3.387164
