34 
5un9_ligand_ani.xyz
 C    0.317117   -1.056493    0.735144
 C   -0.009142    0.430949    0.961026
 C    0.731667    1.325491   -0.029408
 C    2.200328    0.969645   -0.119466
 C    2.328261   -0.504752   -0.478998
 C    3.775198   -0.975266   -0.461202
 C   -1.944653   -0.151789   -0.346657
 C   -5.675591   -0.007082    0.040778
 N   -1.446759    0.637663    0.780543
 O    0.619811    2.684912    0.335367
 O    2.821078    1.712492   -1.147282
 O    1.669812   -1.315762    0.502998
 N   -3.290750   -0.580951   -0.080976
 O    4.333306   -0.823428    0.824390
 S   -0.803408   -1.594330   -0.621993
 C   -4.260234    0.506817   -0.181257
 H    0.040928   -1.634249    1.621272
 H    0.274451    0.726752    1.979105
 H    0.291367    1.162655   -1.025826
 H    2.685551    1.142016    0.854708
 H    1.880833   -0.676155   -1.470121
 H    4.372589   -0.368881   -1.146645
 H    3.811482   -2.022933   -0.796609
 H   -1.915398    0.449830   -1.272766
 H   -5.754577   -0.494821    1.016903
 H   -5.956150   -0.735332   -0.729202
 H   -6.398619    0.813979    0.003706
 H   -1.957262    0.308685    1.596594
 H   -0.329293    2.874095    0.365623
 H    2.659526    2.644264   -0.944606
 H   -3.544367   -1.355551   -0.684183
 H    3.732178   -1.291298    1.420577
 H   -4.016045    1.257519    0.580645
 H   -4.189890    1.020892   -1.157802
