93 
5uov_ligand_ani.xyz
 C   -4.849535   -4.247991   -0.458368
 O   -5.125293   -5.532171   -0.107659
 C   -4.076800   -6.470941   -0.194971
 C   -3.599848   -3.794243   -0.882838
 C   -3.428990   -2.453035   -1.219367
 C   -4.491249   -1.568366   -1.105061
 C   -5.745927   -2.020896   -0.699459
 C   -5.923247   -3.352979   -0.374983
 S   -4.234771    0.156317   -1.403404
 O   -3.163505    0.275427   -2.396057
 O   -5.528597    0.771197   -1.647147
 N   -3.582734    0.723738    0.026441
 C   -4.359420    0.643473    1.260240
 C   -3.585301   -0.019523    2.407493
 C   -3.205437   -1.461338    2.062126
 C   -4.422514    0.041312    3.687096
 C   -2.575484    1.786908   -0.063233
 C   -1.148650    1.222141   -0.043903
 O   -0.670204    0.961943   -1.351010
 C   -0.153223    2.121331    0.707645
 N    1.063260    1.397137    1.026853
 C    1.109369    0.506028    2.060697
 O    0.153989    0.305813    2.800430
 C    0.222863    3.409512   -0.036770
 C   -1.351134    5.079703    1.012108
 C   -2.384163    6.008347    0.941556
 C   -2.973120    6.305770   -0.285021
 C   -2.518056    5.669988   -1.435864
 C   -1.478132    4.745804   -1.362024
 C   -0.883636    4.435625   -0.136888
 C    2.403973   -0.238260    2.200940
 C    2.383424   -1.482340    2.829424
 C    3.542245   -2.248154    2.901604
 C    4.728695   -1.775318    2.345525
 C    4.762417   -0.511716    1.754106
 C    3.607490    0.262670    1.703870
 C    6.003579    0.043081    1.105795
 O    6.481327    1.117791    1.435589
 N    6.532588   -0.701855    0.082522
 C    7.729119   -0.207915   -0.601134
 C    7.550591   -0.687219   -2.039401
 C    6.745970   -1.980356   -1.883624
 C    5.781174   -1.672854   -0.721952
 C    4.461816   -1.122310   -1.221746
 N    4.296829    0.044020   -1.764821
 C    2.965547    0.278039   -2.048338
 C    2.126729   -0.746811   -1.732606
 S    3.016799   -2.070543   -1.086798
 C    2.556484    1.581693   -2.665211
 H   -4.498795   -7.426344    0.120369
 H   -3.701174   -6.559342   -1.223188
 H   -3.243121   -6.204248    0.468226
 H   -2.757228   -4.471019   -0.959855
 H   -2.455755   -2.100603   -1.554649
 H   -6.577522   -1.322195   -0.649232
 H   -6.885087   -3.733924   -0.046411
 H   -4.642730    1.663223    1.556559
 H   -5.291197    0.100358    1.067516
 H   -2.651868    0.543067    2.576684
 H   -4.096542   -2.063805    1.838245
 H   -2.681127   -1.931410    2.901299
 H   -2.547885   -1.504817    1.186263
 H   -3.877152   -0.387602    4.534964
 H   -5.353110   -0.528097    3.565313
 H   -4.688966    1.073178    3.943337
 H   -2.733678    2.383650   -0.965549
 H   -2.716785    2.442289    0.801455
 H   -1.198086    0.275877    0.516933
 H   -1.430744    0.647875   -1.874412
 H   -0.603093    2.374703    1.673299
 H    1.760633    1.318732    0.296493
 H    0.579525    3.149330   -1.039345
 H    1.070209    3.843128    0.509438
 H   -0.898500    4.849692    1.976360
 H   -2.731290    6.499493    1.847409
 H   -3.782111    7.029085   -0.342551
 H   -2.971271    5.893458   -2.398360
 H   -1.140242    4.236913   -2.263522
 H    1.446565   -1.836330    3.250263
 H    3.521732   -3.225232    3.376000
 H    5.631999   -2.380156    2.371138
 H    3.679347    1.263212    1.282680
 H    8.626576   -0.625689   -0.126536
 H    7.772164    0.878328   -0.496321
 H    8.499981   -0.834730   -2.560284
 H    6.956067    0.045402   -2.593641
 H    6.211143   -2.274902   -2.790822
 H    7.399326   -2.809029   -1.589518
 H    5.552995   -2.570078   -0.138626
 H    1.049610   -0.752899   -1.816461
 H    1.467708    1.684006   -2.622525
 H    3.023245    2.414444   -2.129184
 H    2.876742    1.646162   -3.710949
