57 
5upf_ligand_ani.xyz
 N    2.441369   -0.665805   -0.000714
 C   -5.408130   -1.424749   -1.332734
 C   -3.906999   -1.146650   -1.391967
 C   -3.238839   -1.499879   -0.053288
 C   -3.948555   -0.746819    1.086251
 C   -5.455513   -1.010982    1.061715
 C   -0.851362   -2.283858    0.257386
 C    3.180601    0.447217   -0.274515
 C    6.660236   -0.531445    0.202055
 C    9.065384   -0.605861    0.407241
 C    6.735127    0.879963   -0.086664
 C    5.439378    1.309278   -0.279192
 C    0.165012    0.232639   -0.360645
 F   10.317135    1.369899    0.093421
 C    9.109599    0.779260    0.121333
 C    7.853443   -1.258455    0.447607
 C    7.990530    1.537162   -0.125585
 C    5.325511   -0.886888    0.171072
 N    4.580084    0.246746   -0.119952
 O    2.751028    1.529027   -0.615468
 C    1.038349   -0.808040   -0.037605
 C    0.518403   -2.067003    0.270118
 C   -1.203812   -0.005085   -0.367563
 C   -1.742497   -1.256322   -0.062054
 N   -6.030979   -0.681232   -0.241996
 C   -6.647020    0.494756   -0.577093
 O   -6.641158    0.911152   -1.728826
 C   -7.352505    1.310487    0.517768
 O   -7.863402    0.384772    1.462768
 C   -6.343992    2.271828    1.150453
 C   -8.509523    2.077933   -0.121648
 H    2.941626   -1.483174    0.304476
 H   -5.581290   -2.495463   -1.157832
 H   -5.902815   -1.139107   -2.261169
 H   -3.754255   -0.083743   -1.618719
 H   -3.447811   -1.717651   -2.207579
 H   -3.395794   -2.576721    0.115479
 H   -3.755581    0.329745    0.976752
 H   -3.534686   -1.046603    2.055857
 H   -5.982795   -0.471786    1.842253
 H   -5.641591   -2.080472    1.231309
 H   -1.233653   -3.273682    0.500427
 H    9.997917   -1.128784    0.590426
 H    5.035598    2.283320   -0.519872
 H    0.559441    1.209924   -0.601187
 H    7.815189   -2.322701    0.666648
 H    8.088511    2.596959   -0.339945
 H    4.884249   -1.867913    0.316104
 H    1.193741   -2.882666    0.518654
 H   -1.860840    0.826877   -0.621224
 H   -8.353012    0.890449    2.125321
 H   -5.526689    1.741562    1.651340
 H   -5.914741    2.915412    0.376066
 H   -6.838790    2.907868    1.894613
 H   -8.141647    2.713920   -0.927870
 H   -9.242605    1.374755   -0.527698
 H   -9.003921    2.702104    0.632755
