57 
5upf_ligand_xtb.xyz
 N    2.476428   -0.621651    0.037610
 C   -5.324063   -1.527815   -1.153220
 C   -3.819453   -1.288500   -1.253473
 C   -3.166313   -1.475270    0.121048
 C   -3.858079   -0.547253    1.127076
 C   -5.366092   -0.808697    1.141233
 C   -0.790162   -2.230950    0.442201
 C    3.193654    0.488672   -0.260553
 C    6.652049   -0.530178    0.055001
 C    9.027539   -0.660612    0.227550
 C    6.737856    0.904961   -0.065265
 C    5.448839    1.370534   -0.196319
 C    0.202453    0.229938   -0.342689
 F   10.320121    1.310241    0.143475
 C    9.089123    0.748896    0.108420
 C    7.827545   -1.300893    0.201695
 C    7.996732    1.544792   -0.035217
 C    5.312630   -0.856697   -0.002107
 N    4.597188    0.301140   -0.152823
 O    2.750448    1.563447   -0.578839
 C    1.082561   -0.779165    0.031227
 C    0.573383   -2.014365    0.421121
 C   -1.159148   -0.002266   -0.315452
 C   -1.681100   -1.229198    0.077617
 N   -5.915613   -0.627335   -0.181034
 C   -6.791842    0.299400   -0.613935
 O   -7.081497    0.392644   -1.795284
 C   -7.415274    1.295014    0.390731
 O   -7.743036    0.635593    1.606478
 C   -6.401524    2.426040    0.633228
 C   -8.686402    1.871683   -0.237134
 H    2.983699   -1.441151    0.339597
 H   -5.520183   -2.559707   -0.839624
 H   -5.808769   -1.346026   -2.113405
 H   -3.645230   -0.274534   -1.614930
 H   -3.384668   -1.984646   -1.972383
 H   -3.335758   -2.510206    0.440876
 H   -3.670315    0.491540    0.850882
 H   -3.452020   -0.711293    2.126893
 H   -5.866600   -0.156462    1.850748
 H   -5.550752   -1.845871    1.448230
 H   -1.165759   -3.196462    0.748977
 H    9.955545   -1.199358    0.338062
 H    5.063038    2.362569   -0.310438
 H    0.585370    1.188478   -0.648512
 H    7.763806   -2.374541    0.291690
 H    8.085855    2.615133   -0.123228
 H    4.867203   -1.831455    0.013823
 H    1.248242   -2.808348    0.710621
 H   -1.822039    0.797118   -0.609261
 H   -8.373066    1.189378    2.081867
 H   -5.512557    2.050352    1.132752
 H   -6.114355    2.867446   -0.317176
 H   -6.847681    3.198646    1.257989
 H   -8.465455    2.276799   -1.219243
 H   -9.427243    1.083652   -0.352645
 H   -9.094204    2.659807    0.394747
