47 
5upj_ligand_ani.xyz
 C    0.492329    0.982335   -0.092925
 C   -0.275237    1.829429   -0.999071
 O    0.184349    2.624144   -1.783263
 O   -1.649350    1.695538   -0.962047
 C   -2.291361    0.939445   -0.026833
 C   -1.604891    0.162768    0.848915
 C   -0.189734    0.155567    0.766405
 O    0.437483   -0.693542    1.618580
 C    2.749207   -0.172039   -0.275007
 C    2.555424   -0.865699   -1.475233
 C    3.208471   -2.067657   -1.724321
 C    4.076044   -2.601734   -0.775237
 C    4.284066   -1.920477    0.420235
 C    3.628200   -0.714352    0.667130
 C    1.994739    1.150813   -0.096807
 C    2.484870    1.981333    1.104714
 C    1.903154    3.391916    1.128931
 C   -3.774101    0.987221   -0.176578
 C   -4.341921   -0.156219   -1.041515
 C   -4.347727   -1.564823   -0.425340
 C   -2.978594   -2.255314   -0.266608
 C   -2.383634   -2.220079    1.147883
 C   -2.291677   -0.816843    1.764687
 H    1.319005   -0.901958    1.271126
 H    1.876829   -0.455129   -2.222363
 H    3.039551   -2.587937   -2.664040
 H    4.586699   -3.541732   -0.966574
 H    4.956405   -2.330578    1.169588
 H    3.821371   -0.199028    1.607065
 H    2.203906    1.743223   -0.997109
 H    2.229011    1.470247    2.042416
 H    3.580326    2.031097    1.053130
 H    0.822345    3.376658    1.308463
 H    2.362031    3.983070    1.928244
 H    2.080801    3.913200    0.181190
 H   -4.254183    0.958495    0.808988
 H   -4.037619    1.944180   -0.636419
 H   -5.378028    0.104493   -1.289928
 H   -3.798820   -0.179562   -1.997121
 H   -4.976771   -2.188112   -1.073348
 H   -4.864076   -1.540995    0.545040
 H   -3.069657   -3.308750   -0.559677
 H   -2.264413   -1.811154   -0.973881
 H   -2.981684   -2.854326    1.814582
 H   -1.379014   -2.655896    1.113615
 H   -1.739718   -0.870283    2.706493
 H   -3.299916   -0.461887    2.003812
