46 
5uqx_ligand_xtb.xyz
 C   -0.238321    1.187661   -0.008579
 C    3.795693   -0.623247    1.065473
 C    0.036183    2.544808   -0.100665
 C    5.214709   -0.995919   -1.282859
 C    2.280938    2.211069   -0.239081
 C    2.126595    0.811929   -0.116720
 C    3.339154   -0.036512   -0.108961
 C    4.068992   -0.227594   -1.280204
 C    5.660410   -1.586321   -0.103521
 C    4.944592   -1.392210    1.071688
 C    0.845397    0.292325   -0.001454
 C    0.213291   -1.509392    1.617061
 C    0.621779   -1.183476    0.179480
 N    1.250578    3.048150   -0.213491
 O    6.795502   -2.334348   -0.146310
 N    3.509705    2.773771   -0.423474
 C   -1.641332    0.757206    0.080944
 C   -2.444288    1.154254    1.149018
 C   -3.767499    0.757319    1.184399
 C   -4.257872   -0.021378    0.141280
 N   -3.505177   -0.385369   -0.895490
 C   -2.244512   -0.005067   -0.921479
 C   -5.686096   -0.469665    0.152884
 O   -6.451334   -0.199902    1.061019
 N   -6.018741   -1.189199   -0.934819
 C   -7.334805   -1.724785   -1.154305
 H    3.251168   -0.470835    1.985647
 H   -0.768297    3.269167   -0.097096
 H    5.780981   -1.152878   -2.186959
 H    3.725112    0.228857   -2.196391
 H    5.288851   -1.844498    1.992768
 H    0.967955   -1.162474    2.318797
 H   -0.731275   -1.030916    1.865857
 H    0.097057   -2.583751    1.738451
 H    1.537294   -1.722621   -0.069467
 H   -0.167261   -1.523916   -0.492665
 H    6.988463   -2.690217    0.729384
 H    4.324960    2.236643   -0.183669
 H    3.553883    3.772401   -0.314160
 H   -2.023646    1.758590    1.940523
 H   -4.431223    1.029425    1.989812
 H   -1.684902   -0.305345   -1.799088
 H   -5.288694   -1.340670   -1.616586
 H   -7.304120   -2.813983   -1.227547
 H   -7.949711   -1.437744   -0.301958
 H   -7.772541   -1.318745   -2.068787
