67 
5ur1_ligand_ani.xyz
 C   -6.683539    1.036385    2.893271
 O   -5.346378    1.282184    2.509646
 C   -4.904151    0.772643    1.340558
 C   -3.553136    0.990512    1.031404
Cl   -2.573920    1.904030    2.126841
 C   -5.708423    0.067917    0.441959
 C   -5.173652   -0.422167   -0.751860
 O   -5.889093   -1.103273   -1.673100
 C   -7.275733   -1.271724   -1.465290
 C   -3.816518   -0.220669   -1.034912
Cl   -3.158248   -0.843267   -2.510759
 C   -2.998217    0.485748   -0.148264
 N   -1.633193    0.730343   -0.455143
 C   -0.723609   -0.293847   -0.225569
 O   -1.067934   -1.355950    0.256956
 C   -1.293784    1.910913   -1.252738
 C    0.099760    2.340802   -0.923370
 C    0.617083    3.626454   -0.940397
 N    1.895295    3.912507   -0.697110
 C    2.684556    2.852031   -0.430027
 N    4.000680    3.157694   -0.203348
 C    5.100771    2.307130   -0.000021
 C    4.995351    1.029699    0.560667
 C    6.140700    0.263492    0.752161
 C    7.397606    0.742913    0.400594
 C    7.502843    2.018263   -0.147064
 C    6.369434    2.795912   -0.337137
 N    2.300026    1.583041   -0.378434
 C    1.012505    1.332393   -0.618717
 N    0.595780    0.013753   -0.569842
 C    1.639494   -1.027902   -0.503919
 C    1.272600   -2.295973   -1.272039
 C    2.430418   -3.292626   -1.203447
 C    1.996607   -1.374068    0.942463
 C    3.153225   -2.371011    0.953897
 N    2.811819   -3.555549    0.179973
 C    2.643631   -4.819556    0.682808
 O    2.251722   -5.745279   -0.012511
 C    2.970702   -5.030602    2.149611
 H   -7.394544    1.480988    2.185215
 H   -6.884537   -0.038630    2.985854
 H   -6.801241    1.510732    3.868079
 H   -6.753059   -0.097555    0.671397
 H   -7.479414   -1.869493   -0.567715
 H   -7.790996   -0.305951   -1.385606
 H   -7.641731   -1.804353   -2.343606
 H   -2.012560    2.695685   -1.006015
 H   -1.394861    1.682716   -2.324881
 H   -0.025134    4.478914   -1.165347
 H    4.204950    4.135551   -0.349083
 H    4.028049    0.644487    0.859017
 H    6.038457   -0.729992    1.187979
 H    8.283369    0.133007    0.551963
 H    8.476022    2.414905   -0.425469
 H    6.461930    3.792967   -0.762666
 H    2.511799   -0.575187   -0.986876
 H    1.042728   -2.041228   -2.312426
 H    0.374170   -2.737211   -0.830558
 H    3.301809   -2.893219   -1.744839
 H    2.163188   -4.253330   -1.645424
 H    1.111742   -1.798111    1.432302
 H    2.264550   -0.454742    1.477152
 H    3.423682   -2.651133    1.971816
 H    4.039487   -1.897542    0.502552
 H    2.814087   -6.086883    2.367393
 H    4.009422   -4.768142    2.374883
 H    2.316966   -4.432582    2.793154
