67 
5ur1_ligand_dft.xyz
 C   -6.953346    1.238702    2.664466
 O   -5.599826    1.412725    2.305027
 C   -5.123924    0.743453    1.237670
 C   -3.770127    0.926319    0.932913
Cl   -2.803674    1.975675    1.919963
 C   -5.896802   -0.100560    0.439423
 C   -5.336070   -0.759610   -0.655687
 O   -6.023692   -1.583325   -1.469366
 C   -7.386487   -1.824681   -1.193833
 C   -3.983111   -0.565485   -0.954962
Cl   -3.286651   -1.376597   -2.321486
 C   -3.198557    0.265160   -0.154343
 N   -1.834409    0.486908   -0.464448
 C   -0.935075   -0.479048   -0.075070
 O   -1.277261   -1.464807    0.551783
 C   -1.516231    1.570479   -1.389927
 C   -0.096612    1.986370   -1.180458
 C    0.413542    3.252703   -1.405364
 N    1.700173    3.569406   -1.277494
 C    2.502838    2.558128   -0.905565
 N    3.824777    2.885806   -0.798993
 C    4.917456    2.089460   -0.404818
 C    5.019405    0.729182   -0.712596
 C    6.150815    0.014245   -0.332883
 C    7.192211    0.641501    0.346077
 C    7.097535    1.998611    0.639846
 C    5.967092    2.718387    0.271948
 N    2.123961    1.310144   -0.615807
 C    0.832474    1.035455   -0.747536
 N    0.403612   -0.247211   -0.421510
 C    1.410113   -1.252601   -0.048220
 C    1.133252   -2.653226   -0.598098
 C    2.429472   -3.474714   -0.473360
 C    1.675337   -1.288878    1.468677
 C    2.313173   -2.637604    1.835535
 N    3.155552   -3.117715    0.748175
 C    4.508666   -2.939188    0.681136
 O    5.143895   -3.198046   -0.335761
 C    5.205358   -2.407407    1.921802
 H   -7.626965    1.576544    1.866893
 H   -7.170665    0.192155    2.911556
 H   -7.105016    1.856768    3.549208
 H   -6.942374   -0.245848    0.671868
 H   -7.519992   -2.284137   -0.206630
 H   -7.977611   -0.902179   -1.254023
 H   -7.724072   -2.519045   -1.963009
 H   -2.197197    2.402035   -1.183577
 H   -1.693406    1.241268   -2.425055
 H   -0.248549    4.061390   -1.713103
 H    3.993619    3.874500   -0.913639
 H    4.224744    0.236457   -1.256165
 H    6.207179   -1.043593   -0.574241
 H    8.073110    0.077331    0.636764
 H    7.903217    2.503623    1.164746
 H    5.889882    3.775029    0.516565
 H    2.323259   -0.901765   -0.529779
 H    0.841144   -2.596448   -1.651426
 H    0.307026   -3.118695   -0.058618
 H    3.104307   -3.276596   -1.308291
 H    2.204586   -4.548420   -0.476167
 H    0.738930   -1.167861    2.019032
 H    2.339664   -0.457164    1.727333
 H    1.532293   -3.386956    2.007068
 H    2.887260   -2.568695    2.759097
 H    6.274165   -2.380365    1.711069
 H    4.870711   -1.392586    2.160915
 H    5.031309   -3.045713    2.793922
