41 
5ur6_ligand_ani.xyz
 C   -1.623680   -1.478545    2.452535
 C   -1.689706   -2.862606    1.880707
 C   -2.212433   -1.701026    1.083303
 C   -1.455543   -1.244279   -0.127863
 C   -0.064634   -1.301181   -0.142930
 C   -2.122672   -0.758124   -1.265538
 C   -3.556831   -0.584975   -1.260009
 N   -4.704941   -0.424778   -1.262069
 C   -1.398962   -0.428936   -2.407149
 C   -0.018653   -0.526709   -2.424202
 C    0.657159   -0.921668   -1.264710
 N    2.069641   -0.895207   -1.270775
 S    3.070559   -0.528323    0.007286
 O    4.404015   -0.741942   -0.522600
 O    2.608418   -1.220089    1.198508
 C    2.880433    1.246205    0.294566
 C    1.455114    1.702367    0.439797
 C    0.742885    1.478567    1.617345
 C   -0.598060    1.829331    1.711534
 C   -1.281591    2.392408    0.629353
 C   -2.753246    2.718104    0.709648
 C   -0.553985    2.631176   -0.535491
 C    0.797042    2.317383   -0.622422
 H   -0.648120   -0.995252    2.503268
 H   -2.307767   -1.238705    3.261887
 H   -2.411768   -3.556727    2.301634
 H   -0.762819   -3.331032    1.552973
 H   -3.292390   -1.616255    0.995570
 H    0.478899   -1.645312    0.729011
 H   -1.932437   -0.086040   -3.288285
 H    0.536385   -0.270110   -3.323266
 H    2.520205   -0.745320   -2.164093
 H    3.393308    1.739439   -0.539230
 H    3.467889    1.417518    1.206664
 H    1.240941    1.003513    2.462376
 H   -1.131304    1.654830    2.644172
 H   -3.372078    1.820614    0.579366
 H   -3.017313    3.155350    1.679303
 H   -3.043957    3.426534   -0.073111
 H   -1.054094    3.086475   -1.389158
 H    1.339292    2.524841   -1.543851
