41 
5ur6_ligand_xtb.xyz
 C   -1.662139   -1.056322    2.616106
 C   -1.891649   -2.457983    2.170347
 C   -2.243531   -1.312731    1.249826
 C   -1.458474   -1.096220    0.021283
 C   -0.075852   -1.191688    0.008936
 C   -2.117973   -0.817768   -1.189205
 C   -3.517470   -0.655459   -1.235691
 N   -4.652680   -0.493112   -1.296103
 C   -1.393965   -0.685193   -2.375227
 C   -0.021770   -0.784190   -2.367363
 C    0.648649   -1.007876   -1.162675
 N    2.034893   -1.077044   -1.140292
 S    3.042911   -0.540489    0.085589
 O    4.356740   -0.920235   -0.334795
 O    2.555994   -1.005095    1.345509
 C    2.930636    1.287530    0.021279
 C    1.509164    1.686196    0.164972
 C    0.900861    1.664510    1.414132
 C   -0.444140    1.956531    1.544036
 C   -1.219185    2.269877    0.434902
 C   -2.681208    2.558779    0.563794
 C   -0.602896    2.307572   -0.810882
 C    0.741237    2.019971   -0.945819
 H   -0.646822   -0.698710    2.677274
 H   -2.321463   -0.639471    3.362455
 H   -2.703862   -3.019566    2.605881
 H   -1.032536   -3.056979    1.910561
 H   -3.301056   -1.107321    1.130934
 H    0.470343   -1.397252    0.913079
 H   -1.922273   -0.496242   -3.298198
 H    0.538939   -0.680000   -3.284581
 H    2.494491   -1.029062   -2.035850
 H    3.372807    1.574915   -0.927925
 H    3.555017    1.619909    0.846102
 H    1.487035    1.405628    2.282822
 H   -0.901153    1.939307    2.522217
 H   -2.988064    2.560339    1.606002
 H   -2.919605    3.526789    0.126231
 H   -3.262799    1.805476    0.033043
 H   -1.186574    2.560801   -1.683848
 H    1.201875    2.059795   -1.923066
