41 
5ur6_ligand_dft.xyz
 C   -1.753392    0.362451    2.688592
 C   -2.033923   -1.066594    3.021451
 C   -2.303562   -0.553394    1.619445
 C   -1.469680   -1.018730    0.481389
 C   -0.083468   -1.110656    0.587203
 C   -2.070344   -1.406583   -0.732177
 C   -3.486959   -1.283970   -0.917673
 N   -4.629478   -1.157620   -1.077547
 C   -1.293232   -1.896472   -1.787742
 C    0.081938   -1.957218   -1.674410
 C    0.692715   -1.531252   -0.489558
 N    2.100873   -1.548903   -0.419010
 S    3.094112   -0.417647    0.318682
 O    4.435714   -0.905412    0.053738
 O    2.612017   -0.194191    1.669774
 C    2.888096    1.131803   -0.610818
 C    1.471833    1.626782   -0.628800
 C    0.923716    2.257517    0.487242
 C   -0.424432    2.595910    0.510787
 C   -1.261736    2.304177   -0.566474
 C   -2.740123    2.587199   -0.512239
 C   -0.695375    1.711561   -1.698303
 C    0.651917    1.382338   -1.731843
 H   -0.718523    0.677701    2.600957
 H   -2.423413    1.126388    3.070867
 H   -2.894182   -1.304305    3.638790
 H   -1.187262   -1.735568    3.146112
 H   -3.351325   -0.410335    1.374338
 H    0.416113   -0.823301    1.504031
 H   -1.778463   -2.206129   -2.707354
 H    0.684266   -2.302110   -2.509939
 H    2.589909   -2.024311   -1.167399
 H    3.279614    0.926892   -1.610724
 H    3.574853    1.818408   -0.105139
 H    1.546716    2.453752    1.355088
 H   -0.839252    3.073244    1.394546
 H   -3.315636    1.657119   -0.588182
 H   -3.019119    3.078776    0.423947
 H   -3.054096    3.231075   -1.340911
 H   -1.325271    1.482167   -2.553785
 H    1.063749    0.896154   -2.612778
