54 
5ur9_ligand_ani.xyz
 C   -1.137070   -0.585706    0.350892
 C    0.352972    2.805508    0.901297
 C    1.470880    3.607354    0.706510
 O    1.167211   -1.023661    0.455238
 C    2.374530   -1.582099    0.057440
 O   -4.254277    1.412677   -1.928115
 C   -3.411230    1.691217   -0.915220
 O   -3.633081    2.559485   -0.105410
 C   -2.203768    0.779609   -0.929050
 C   -1.209831    0.970140    0.222016
 C    0.014781    1.809600   -0.017909
 C    0.806455    1.651274   -1.156054
 C    1.918915    2.459211   -1.362441
 C    2.265401    3.430566   -0.424635
 C    0.066169   -1.155616   -0.338254
 O    0.098909   -1.606353   -1.457275
 C    2.473851   -2.829770   -0.496607
 C    3.756771   -3.365601   -0.759485
 C    4.892639   -2.652806   -0.488836
 C    4.807759   -1.353275    0.083782
 C    5.966712   -0.581021    0.367809
 C    5.855766    0.664981    0.922664
 C    4.584578    1.198454    1.231351
 C    3.445811    0.475013    0.978687
 C    3.535566   -0.810795    0.385042
 C   -2.407348   -0.719200   -0.519284
 C   -3.686893   -1.046422    0.191971
 C   -4.686055   -1.743867   -0.492753
 C   -5.909434   -2.025004    0.107979
 C   -6.151763   -1.612296    1.413561
 C   -5.165261   -0.917233    2.107932
 C   -3.945314   -0.636562    1.499870
 H   -1.189737   -0.983128    1.369294
 H   -0.261331    2.951901    1.788401
 H    1.725494    4.366514    1.442368
 H   -5.009250    2.017763   -1.828215
 H   -1.730232    0.833098   -1.912520
 H   -1.752766    1.375416    1.079860
 H    0.567908    0.880329   -1.885406
 H    2.533646    2.311117   -2.246571
 H    3.156374    4.037051   -0.565032
 H    1.591712   -3.414031   -0.731364
 H    3.824305   -4.359154   -1.196009
 H    5.874177   -3.067826   -0.705395
 H    6.942830   -0.999516    0.132135
 H    6.747863    1.251127    1.130794
 H    4.511700    2.192648    1.665950
 H    2.464837    0.878786    1.210222
 H   -2.268145   -1.399482   -1.363715
 H   -4.505359   -2.068693   -1.517422
 H   -6.671428   -2.569769   -0.444956
 H   -7.104228   -1.832011    1.889896
 H   -5.341382   -0.594454    3.130881
 H   -3.190603   -0.098813    2.071642
