54 
5ura_ligand_ani.xyz
 C   -1.134799   -0.582293    0.344059
 C    0.800871    1.665976   -1.151788
 C    1.908929    2.479591   -1.359797
 O    1.170313   -1.012672    0.447075
 C    2.375459   -1.580540    0.056461
 O   -3.645887    2.551077   -0.060345
 C   -3.420356    1.699797   -0.887105
 O   -4.262875    1.437280   -1.904641
 C   -2.209078    0.793662   -0.919307
 C   -1.209811    0.974424    0.229193
 C    0.012260    1.817325   -0.010537
 C    0.349998    2.811169    0.911166
 C    1.463915    3.618239    0.715301
 C    2.254777    3.448885   -0.419561
 C    0.069686   -1.148025   -0.346333
 O    0.103607   -1.599910   -1.464673
 C    2.468966   -2.834295   -0.484932
 C    3.749379   -3.380536   -0.738382
 C    4.888486   -2.671315   -0.472023
 C    4.809683   -1.364688    0.085116
 C    5.972410   -0.595704    0.362271
 C    5.867296    0.657624    0.901391
 C    4.598547    1.201674    1.201339
 C    3.456108    0.481548    0.955976
 C    3.539868   -0.811627    0.377420
 C   -2.404991   -0.711015   -0.526653
 C   -3.682761   -1.052455    0.181060
 C   -3.941631   -0.660627    1.494387
 C   -5.160776   -0.952264    2.098785
 C   -6.145777   -1.640317    1.395272
 C   -5.902727   -2.035214    0.084310
 C   -4.680150   -1.743148   -0.512813
 H   -1.188386   -0.987171    1.359396
 H    0.562995    0.896606   -1.883055
 H    2.520386    2.338046   -2.247232
 H   -5.020520    2.036808   -1.792336
 H   -1.741035    0.861823   -1.904461
 H   -1.748897    1.371550    1.093311
 H   -0.261664    2.951687    1.801072
 H    1.718252    4.375709    1.452915
 H    3.142629    4.059684   -0.561079
 H    1.583846   -3.415505   -0.716059
 H    3.812502   -4.379187   -1.163753
 H    5.868358   -3.094443   -0.680784
 H    6.946516   -1.022652    0.133877
 H    6.762237    1.241554    1.103885
 H    4.530650    2.201228    1.624107
 H    2.477253    0.892721    1.183629
 H   -2.263177   -1.380888   -1.379065
 H   -3.188207   -0.128473    2.073107
 H   -5.337743   -0.643728    3.126024
 H   -7.097635   -1.868602    1.868803
 H   -6.663511   -2.574502   -0.475555
 H   -4.498803   -2.053572   -1.541723
