59 
5usf_ligand_ani.xyz
 C    5.050548    0.547105    1.182964
 C    6.199572    1.045505    0.583453
 C    6.856844    0.284836   -0.383253
 O    7.980919    0.813365   -0.941748
 C    6.353547   -0.965571   -0.739349
 C    5.199581   -1.446359   -0.130225
 C    4.527159   -0.703605    0.843202
 C    3.261038   -1.216867    1.478452
 C    2.097007   -1.212602    0.484027
 N    1.904593    0.136980   -0.115463
 C    0.796403   -1.656204    1.153681
 O    0.725123   -1.967423    2.325798
 N   -0.349315   -1.602684    0.364797
 S   -0.490709   -1.835619   -1.291964
 O   -0.328250   -3.232871   -1.608946
 O    0.287409   -0.833007   -1.985831
 O   -2.005863   -1.372477   -1.536421
 C   -3.067253   -2.261435   -1.115539
 C   -3.893441   -1.583971   -0.036675
 O   -3.038151   -1.175343    1.046751
 C   -4.595468   -0.308133   -0.484696
 O   -5.878541   -0.639776   -0.991763
 C   -4.653946    0.512506    0.804376
 O   -5.690818    0.034625    1.631005
 C   -3.347376    0.142676    1.501065
 N   -2.231509    1.041932    1.238696
 C   -1.052109    0.983894    1.949641
 N   -0.102552    1.760229    1.490448
 C   -0.686806    2.388744    0.406879
 C   -1.994086    1.952320    0.216407
 N   -2.798906    2.351637   -0.770595
 C   -2.212505    3.227413   -1.585080
 N   -0.968620    3.722584   -1.529951
 C   -0.184170    3.303417   -0.532797
 N    1.110581    3.729075   -0.464253
 H    4.535195    1.144050    1.933938
 H    6.599825    2.018453    0.849620
 H    8.335612    0.188678   -1.586879
 H    6.860909   -1.563110   -1.495979
 H    4.814614   -2.422880   -0.420556
 H    2.991074   -0.602340    2.342334
 H    3.390755   -2.237502    1.848002
 H    2.316153   -1.905757   -0.333263
 H    1.289228    0.039737   -0.955150
 H    1.463743    0.775503    0.582939
 H    2.821786    0.513773   -0.402313
 H   -1.230913   -1.659399    0.882954
 H   -2.656174   -3.213639   -0.765676
 H   -3.676022   -2.445484   -2.005392
 H   -4.629387   -2.298117    0.347072
 H   -3.982233    0.220005   -1.224020
 H   -6.194276    0.093433   -1.534522
 H   -4.741054    1.587131    0.605526
 H   -6.394603   -0.254109    1.029314
 H   -3.471200    0.102930    2.584390
 H   -0.940524    0.290202    2.768206
 H   -2.816513    3.595780   -2.408752
 H    1.330927    4.555363   -1.002389
 H    1.542657    3.650189    0.446292
