39 
5usy_ligand_ani.xyz
 S    5.294175    0.790257   -0.106799
 C   -2.943286   -2.648487    0.205735
 F   -4.968687    1.537892   -1.442031
 N   -4.136138   -3.192713    0.486103
 O    6.391901   -0.003522   -0.636003
 C   -0.927015   -2.245077   -0.203775
 F   -1.545808    0.911006    1.730309
 N   -1.803964   -3.273678    0.008655
 O    4.980375    2.117419   -0.612174
 C    1.510096   -1.717571   -0.347507
 N    0.387259   -2.552298   -0.432363
 O   -4.908190   -0.578705    0.381337
 C    1.415087   -0.324031   -0.248209
 N    5.551230    0.946019    1.538368
 C    2.579851    0.430740   -0.185263
 N   -1.432669   -1.031628   -0.182238
 C    3.823590   -0.190197   -0.209876
 N   -2.760104   -1.280784    0.122580
 C    3.927690   -1.573532   -0.315057
 C    2.769901   -2.331462   -0.383157
 C   -3.738054   -0.283463    0.235627
 C   -3.270004    1.131004    0.128985
 C   -3.958057    2.012790   -0.706925
 C   -3.634232    3.354851   -0.825809
 C   -2.587795    3.856028   -0.061426
 C   -1.881440    3.027079    0.802436
 C   -2.232231    1.690447    0.879140
 H   -4.229986   -4.192765    0.412073
 H   -4.953605   -2.597825    0.488120
 H    0.564302   -3.545822   -0.431298
 H    0.445954    0.161472   -0.225281
 H    6.429154    0.508882    1.798298
 H    5.514899    1.924397    1.804847
 H    2.522256    1.514130   -0.128566
 H    4.906682   -2.041907   -0.351921
 H    2.838935   -3.412977   -0.468275
 H   -4.205653    3.978478   -1.504778
 H   -2.321551    4.905547   -0.135673
 H   -1.064324    3.393519    1.414214
