39 
5usy_ligand_dft.xyz
 S    5.263398    0.733078   -0.187869
 C   -3.075162   -2.571072    0.047501
 F   -4.238884    1.659129   -1.962799
 N   -4.303338   -3.102724    0.126194
 O    6.185180    0.160264   -1.156884
 C   -1.014187   -2.202157   -0.052500
 F   -2.203282    0.839110    2.175569
 N   -1.936332   -3.219781   -0.016218
 O    4.881835    2.137820   -0.244592
 C    1.433908   -1.727101   -0.134439
 N    0.308975   -2.543600   -0.120529
 O   -4.978428   -0.436559    0.058125
 C    1.368331   -0.329251   -0.082497
 N    5.947697    0.390563    1.309269
 C    2.543074    0.412982   -0.094915
 N   -1.479760   -0.977448   -0.022288
 C    3.774955   -0.224732   -0.157693
 N   -2.847731   -1.205819    0.049716
 C    3.851366   -1.615973   -0.219829
 C    2.687854   -2.359576   -0.205849
 C   -3.786771   -0.190598    0.074060
 C   -3.232704    1.195552    0.102138
 C   -3.514554    2.089428   -0.926656
 C   -3.043594    3.392622   -0.926635
 C   -2.271685    3.819768    0.148556
 C   -1.974494    2.963006    1.204595
 C   -2.460169    1.667487    1.160332
 H   -4.394305   -4.098550    0.012596
 H   -5.101297   -2.487733    0.049875
 H    0.458059   -3.541105   -0.146355
 H    0.408780    0.167171   -0.036430
 H    6.957419    0.346956    1.202555
 H    5.681459    1.088989    1.997396
 H    2.502843    1.496410   -0.064052
 H    4.816219   -2.107731   -0.283008
 H    2.742145   -3.443976   -0.254720
 H   -3.280381    4.044334   -1.759062
 H   -1.896167    4.837485    0.165114
 H   -1.381925    3.281509    2.053870
