39 
5usz_ligand_dft.xyz
 S    5.263448    0.733126   -0.187937
 C   -3.075094   -2.571148    0.047671
 F   -4.240442    1.659360   -1.961912
 N   -4.303246   -3.102855    0.126528
 O    6.185376    0.159815   -1.156515
 C   -1.014125   -2.202188   -0.052482
 F   -2.201768    0.838840    2.174892
 N   -1.936246   -3.219821   -0.016197
 O    4.881883    2.137834   -0.245265
 C    1.433958   -1.727084   -0.134554
 N    0.309037   -2.543597   -0.120662
 O   -4.978411   -0.436704    0.058163
 C    1.368392   -0.329246   -0.082269
 N    5.947442    0.391474    1.309491
 C    2.543129    0.412994   -0.094698
 N   -1.479726   -0.977491   -0.022162
 C    3.775009   -0.224688   -0.157813
 N   -2.847692   -1.205907    0.049995
 C    3.851406   -1.615913   -0.220283
 C    2.687900   -2.359527   -0.206309
 C   -3.786751   -0.190700    0.074206
 C   -3.232760    1.195449    0.102253
 C   -3.515436    2.089507   -0.926197
 C   -3.044594    3.392739   -0.926292
 C   -2.271953    3.819795    0.148412
 C   -1.973930    2.962875    1.204077
 C   -2.459496    1.667304    1.159950
 H   -4.394138   -4.098647    0.012553
 H   -5.101196   -2.487877    0.049938
 H    0.458133   -3.541096   -0.146591
 H    0.408849    0.167166   -0.035967
 H    6.957085    0.346128    1.202774
 H    5.682362    1.091130    1.996813
 H    2.502875    1.496414   -0.063594
 H    4.816249   -2.107656   -0.283746
 H    2.742194   -3.443913   -0.255485
 H   -3.282056    4.044538   -1.758461
 H   -1.896522    4.837544    0.164875
 H   -1.380797    3.281256    2.053006
