36 
5ut6_ligand_ani.xyz
 C   -1.489316    3.082257   -0.092860
 C   -1.551703    0.739488   -0.080856
 C   -1.670937   -1.710726    0.163969
 C   -3.845860   -1.842603   -0.183084
 C    3.947118    1.051341    0.633294
 C    5.750209   -2.140444   -0.026832
 C    4.720956   -1.134737   -0.012312
 C    3.494909   -1.369721   -0.639718
 C    2.489206   -0.413327   -0.624573
 C    2.709350    0.807972    0.022192
 C    0.403137    1.828001   -0.008643
 C   -2.264123    1.917931   -0.137698
 C   -2.696591   -2.615821    0.095294
 C   -5.262986   -2.291716   -0.339271
 C    4.941035    0.089730    0.628521
 N    6.578999   -2.950216   -0.037438
 N    1.772541    1.850803    0.055179
 N   -0.155528    3.044391   -0.026041
 N   -2.053948    4.328542   -0.154297
 N   -2.223447   -0.489301   -0.066507
 N   -3.557218   -0.553681   -0.263939
 N   -0.223334    0.655671   -0.024000
 O   -5.889120   -2.240362    0.932678
 H   -0.609703   -1.789902    0.360314
 H    4.116566    2.004779    1.127469
 H    3.327559   -2.317137   -1.143677
 H    1.543630   -0.609917   -1.118076
 H   -3.344582    1.916383   -0.207892
 H   -2.646283   -3.689156    0.227011
 H   -5.280441   -3.313833   -0.748523
 H   -5.758895   -1.622347   -1.057295
 H    5.892554    0.283903    1.114474
 H    2.135971    2.784723    0.177816
 H   -3.015208    4.429178    0.132218
 H   -1.432981    5.079691    0.104778
 H   -6.828114   -2.422693    0.804723
