27 
5uv5_ligand_xtb.xyz
 N    3.036479   -0.719983    0.011682
 C    1.721161   -1.145328    0.043618
 C   -3.032359    0.101502   -0.015678
 C   -4.192235    0.839523   -0.036323
 C   -5.254746   -0.088403   -0.035866
 C   -4.673178   -1.320352   -0.015167
 C    0.704015   -0.093138    0.039965
 C    1.069846    1.252644    0.045368
 C    2.504437    1.661843    0.095818
 C    3.538342    0.566271   -0.038446
 C   -0.636152   -0.466918    0.017912
 C   -1.639163    0.496748   -0.000713
 C   -1.267206    1.846076   -0.002698
 C    0.062476    2.211550    0.020952
 O    1.501069   -2.343471    0.056601
 O    4.713738    0.786879   -0.152638
 O    3.966903   -1.753739   -0.033012
 O   -3.339633   -1.216678   -0.003266
 H   -4.281338    1.906061   -0.050264
 H   -6.302520    0.130427   -0.048776
 H   -5.089467   -2.308246   -0.006645
 H    2.709334    2.159648    1.051525
 H    2.719787    2.406107   -0.677096
 H   -0.882753   -1.517309    0.015206
 H   -2.028673    2.609202   -0.021498
 H    0.330232    3.258040    0.022119
 H    3.402002   -2.560092   -0.020277
