79 
5uw5_ligand_ani.xyz
 N    0.553647    1.115218    0.934742
 C    0.993372    1.901569   -0.249882
 C    2.437713    1.472783   -0.550410
 O    3.347186    1.929402    0.136961
 C    0.956161    3.393921    0.052324
 C    1.443832    4.186912   -1.149625
 O    1.750068    3.641896   -2.197348
 N    1.503272    5.534175   -0.979128
 N    2.610340    0.528078   -1.508075
 C    3.781508   -0.359467   -1.539585
 C    3.709313   -1.392721   -0.393785
 O    3.757157   -2.599623   -0.630124
 C    5.111508    0.387807   -1.609289
 N    3.546035   -0.896808    0.852765
 C    3.034119   -1.689382    1.963190
 C    1.558211   -2.104253    1.726302
 O    0.637842   -1.569033    2.334023
 C    3.163853   -0.850191    3.229110
 O    2.696069    0.467454    2.928864
 N    1.377649   -3.088937    0.809738
 C    0.080508   -3.348068    0.208824
 C   -0.381850   -2.148765   -0.656733
 O    0.250407   -1.092984   -0.692453
 C   -0.960858   -3.771192    1.249678
 N   -1.522574   -2.273849   -1.385805
 C   -1.957054   -1.125149   -2.200203
 C   -2.430947    0.089956   -1.396305
 O   -2.327497    1.227677   -1.835960
 C   -3.083699   -1.705959   -3.075189
 C   -2.738717   -3.193159   -3.176382
 C   -2.181837   -3.518975   -1.788968
 N   -3.047101   -0.163857   -0.209317
 C   -3.919722    0.837978    0.367967
 C   -3.142708    2.124765    0.624135
 O   -3.877846    3.203051    0.324760
 C   -4.576589    0.312329    1.659422
 C   -5.674143    1.261335    2.142072
 C   -3.567375    0.030321    2.774343
 O   -2.033281    2.207287    1.106121
 H    0.392803    0.147800    0.612993
 H    1.278541    1.102208    1.677360
 H   -0.341369    1.492357    1.277250
 H    0.337803    1.669485   -1.094830
 H    1.607510    3.600299    0.909923
 H   -0.067513    3.683154    0.319497
 H    1.360475    5.969397   -0.082356
 H    1.888288    6.088273   -1.729143
 H    1.752378    0.073715   -1.800526
 H    3.670741   -0.963012   -2.444829
 H    5.923518   -0.327830   -1.776185
 H    5.312428    0.957777   -0.701783
 H    5.082217    1.085572   -2.450729
 H    3.629316    0.102784    1.019907
 H    3.631964   -2.604558    2.042332
 H    2.570922   -1.301510    4.031056
 H    4.217539   -0.822803    3.539035
 H    2.659539    0.977689    3.747975
 H    2.192263   -3.304253    0.239470
 H    0.246681   -4.191046   -0.474955
 H   -0.555603   -4.599176    1.836126
 H   -1.888939   -4.104437    0.777440
 H   -1.174960   -2.945703    1.930691
 H   -1.128975   -0.766466   -2.821239
 H   -4.052325   -1.576583   -2.576361
 H   -3.140245   -1.203292   -4.044381
 H   -1.967125   -3.357829   -3.936974
 H   -3.600250   -3.817481   -3.429594
 H   -1.477742   -4.356174   -1.808814
 H   -2.996028   -3.775660   -1.099016
 H   -3.142522   -1.124444    0.085978
 H   -4.711327    1.103352   -0.344039
 H   -3.335057    3.982839    0.531048
 H   -5.049241   -0.638962    1.371971
 H   -5.248814    2.205207    2.498698
 H   -6.383206    1.496419    1.340874
 H   -6.233869    0.809762    2.967561
 H   -4.072753   -0.414301    3.637803
 H   -2.781265   -0.661901    2.450875
 H   -3.083094    0.955813    3.100632
