62 
5uwk_ligand_ani.xyz
 C   -0.813388   -2.192268   -0.882954
 C   -2.196242   -2.102454   -0.906872
 C    5.603495   -1.497840    0.093943
 C    2.051773   -1.580300    1.395867
 C    3.429571   -1.449157    1.372537
 C    3.505436   -2.635106   -0.713280
 C    1.370021   -2.216807    0.354673
 C   -2.409605    1.129572   -0.368427
 O   -1.692645    1.230050   -1.482295
 O   -1.951150    1.168183    0.755145
 C   -3.901541    0.955982   -0.658149
 C   -4.624855    2.315039   -0.808119
 C   -4.108105    3.095847   -2.016655
 C   -4.572350    3.159836    0.466576
 N   -4.518344    0.173801    0.413695
 S   -4.580749   -1.495070    0.294151
 O   -5.194789   -1.955524    1.524419
 O   -5.129508   -1.805367   -1.012004
 C   -2.886949   -2.006668    0.298367
 C   -2.228280   -2.153619    1.515178
 C   -0.846796   -2.266838    1.522652
 C   -0.115557   -2.244257    0.330605
 C    4.173816   -1.926503    0.289278
 C    2.125935   -2.766087   -0.685339
 S    5.768231   -0.211076   -1.232021
 C    4.412801    0.835066   -0.741525
 N    4.560216    1.696614    0.215997
 C    3.393614    2.247858    0.660130
 C    3.327531    3.268489    1.757256
 C    1.830643    3.258822    2.153617
 C    1.067241    2.648873    0.948902
 C    2.144169    1.929477    0.208769
 C    1.989815    1.025121   -0.892930
 N    3.224102    0.586998   -1.374363
 O    0.955033    0.629541   -1.421477
 H   -0.265710   -2.180683   -1.822014
 H   -2.737607   -2.080172   -1.849264
 H    6.247312   -2.320359   -0.238999
 H    6.015660   -1.081716    1.017965
 H    1.490472   -1.131910    2.213151
 H    3.932968   -0.907786    2.172296
 H    4.069578   -3.021375   -1.560577
 H   -0.728129    1.184209   -1.267649
 H   -4.002151    0.401779   -1.596351
 H   -5.674420    2.046852   -0.993421
 H   -3.091590    3.465065   -1.847791
 H   -4.753668    3.957539   -2.215562
 H   -4.090779    2.468917   -2.914510
 H   -5.113128    4.099825    0.313685
 H   -3.541452    3.408137    0.742503
 H   -5.036002    2.644091    1.314049
 H   -4.160502    0.441773    1.329336
 H   -2.792856   -2.150724    2.443605
 H   -0.325303   -2.371408    2.470985
 H    1.627571   -3.311450   -1.483987
 H    3.647445    4.248118    1.378872
 H    3.995461    3.013860    2.585899
 H    1.693956    2.614789    3.027942
 H    1.463547    4.253504    2.420671
 H    0.613786    3.431392    0.321714
 H    0.234298    1.998153    1.248178
 H    3.191032   -0.151503   -2.067011
