62 
5uwl_ligand_ani.xyz
 C    3.448364   -4.021946   -1.135843
 N    4.021038   -2.731444   -0.813913
 C    3.284204   -1.688486   -0.357461
 O    2.069412   -1.740155   -0.210592
 C    4.083744   -0.426362    0.003567
 C    4.761573   -0.590002    1.388033
 C    5.743640    0.552367    1.647566
 C    3.732798   -0.694738    2.514392
 N    3.178867    0.691951   -0.033941
 C    3.505832    1.883061   -0.596340
 O    4.625900    2.182858   -0.990322
 C    2.370097    2.812414   -0.700365
 C    2.201122    4.026617   -1.286689
 C    0.820906    4.355413   -1.124467
 C    0.247879    3.319313   -0.442283
 O    1.193410    2.386807   -0.167473
 C   -1.105140    2.988976    0.008573
 C   -2.223529    3.343507   -0.749523
 C   -3.483069    2.869068   -0.411319
 C   -3.654551    2.044230    0.704267
 C   -2.556707    1.806751    1.536912
 C   -1.293264    2.250060    1.182606
 C   -4.967303    1.338023    0.935359
 S   -5.336066    0.087287   -0.354172
 C   -3.990068   -1.025685   -0.088442
 N   -3.503799   -1.594032   -1.233665
 C   -2.403828   -2.268134   -1.082422
 C   -1.603370   -2.288162    0.177508
 C   -2.529787   -2.104458    1.368464
 N   -3.630914   -1.289787    1.142349
 C   -0.822656   -3.610110    0.082748
 C   -0.510102   -3.677112   -1.422764
 C   -1.777461   -3.141384   -2.122555
 O   -2.285381   -2.574365    2.459006
 H    3.591642   -4.750942   -0.328063
 H    3.895107   -4.416087   -2.053053
 H    2.377092   -3.890436   -1.296636
 H    5.019932   -2.616533   -0.872067
 H    4.867720   -0.245415   -0.742380
 H    5.332287   -1.529872    1.346613
 H    5.217707    1.508593    1.744060
 H    6.294789    0.378228    2.577806
 H    6.471201    0.653201    0.834283
 H    4.231377   -0.901353    3.467415
 H    3.183490    0.247842    2.617998
 H    3.004771   -1.490908    2.328466
 H    2.203421    0.471926    0.132317
 H    2.971358    4.603652   -1.779750
 H    0.321286    5.254375   -1.458707
 H   -2.103173    3.959517   -1.637615
 H   -4.338405    3.107931   -1.039635
 H   -2.682262    1.217036    2.443437
 H   -0.441891    2.005163    1.810880
 H   -5.816033    2.031244    0.888848
 H   -4.985792    0.837609    1.907495
 H   -0.861313   -1.463338    0.169093
 H    0.076884   -3.622471    0.707402
 H   -1.464251   -4.445176    0.384592
 H    0.322526   -2.993504   -1.628877
 H   -0.230783   -4.679932   -1.762801
 H   -2.475136   -3.944827   -2.384835
 H   -1.565501   -2.579426   -3.037434
