62 
5uwl_ligand_xtb.xyz
 C    4.289266   -3.812853   -1.014770
 N    4.643591   -2.477034   -0.598435
 C    3.727526   -1.531641   -0.322318
 O    2.528333   -1.714512   -0.409900
 C    4.316160   -0.194048    0.134200
 C    4.870000   -0.306164    1.574933
 C    5.604058    0.978385    1.948191
 C    3.749689   -0.599656    2.570182
 N    3.285610    0.805719    0.034961
 C    3.419771    1.910097   -0.738893
 O    4.471433    2.258094   -1.245208
 C    2.164509    2.659481   -0.900749
 C    1.864028    3.745504   -1.685089
 C    0.484007    3.974341   -1.532094
 C    0.026377    3.019715   -0.654294
 O    1.048329    2.226885   -0.269989
 C   -1.294395    2.712538   -0.136909
 C   -2.444576    3.018200   -0.865680
 C   -3.677874    2.583650   -0.425606
 C   -3.797518    1.863211    0.759686
 C   -2.662172    1.635233    1.529887
 C   -1.422851    2.041030    1.079361
 C   -5.100011    1.236793    1.131432
 S   -5.484429   -0.095207   -0.085064
 C   -4.108088   -1.112240    0.142305
 N   -3.937013   -2.072741   -0.834078
 C   -2.742808   -2.515397   -0.928221
 C   -1.604273   -1.996724   -0.103810
 C   -2.173641   -1.651931    1.273407
 N   -3.379069   -0.989172    1.192582
 C   -0.529725   -3.076885   -0.203787
 C   -0.776121   -3.693363   -1.586098
 C   -2.298726   -3.661100   -1.764561
 O   -1.620740   -1.885429    2.316742
 H    4.683766   -4.551045   -0.314489
 H    4.676534   -4.021947   -2.013401
 H    3.202413   -3.873255   -1.029368
 H    5.623237   -2.250941   -0.535666
 H    5.124437    0.113133   -0.540995
 H    5.583093   -1.138853    1.592240
 H    4.925822    1.826347    1.899243
 H    5.998519    0.907389    2.958877
 H    6.428341    1.166051    1.264363
 H    4.166236   -0.785231    3.557320
 H    3.073611    0.248393    2.640836
 H    3.177197   -1.473716    2.268799
 H    2.356723    0.484961    0.273344
 H    2.556441    4.291895   -2.291326
 H   -0.093727    4.748958   -1.993160
 H   -2.359310    3.553729   -1.798569
 H   -4.559415    2.773042   -1.021087
 H   -2.744984    1.107934    2.466678
 H   -0.540383    1.822669    1.660974
 H   -5.940642    1.924589    1.053122
 H   -5.064454    0.775557    2.115640
 H   -1.253453   -1.048633   -0.533529
 H    0.473873   -2.669819   -0.107349
 H   -0.686289   -3.813075    0.586719
 H   -0.300597   -3.074126   -2.348317
 H   -0.374037   -4.701580   -1.666178
 H   -2.764717   -4.566852   -1.367187
 H   -2.623708   -3.557039   -2.799119
