62 
5uwm_ligand_ani.xyz
 O    7.324098    1.264213   -1.052495
 C    6.998037    0.404351   -0.245659
 N    7.491547   -0.859114   -0.265549
 C    8.410188   -1.302038   -1.290666
 C    5.994159    0.673905    0.897710
 C    5.849730    2.169425    1.213948
 C    5.276265    2.353330    2.619561
 C    5.017561    2.938193    0.186083
 N    4.714888    0.042733    0.617310
 C    4.520131   -1.276131    0.845286
 O    5.368918   -2.019956    1.337706
 C    3.197229   -1.782128    0.465557
 O    2.303726   -0.901862   -0.066027
 C    1.163239   -1.589590   -0.332980
 C    1.331299   -2.903437    0.017173
 C    2.652118   -3.022826    0.535750
 C    0.047964   -0.823939   -0.885155
 C   -1.146684   -1.468896   -1.211853
 C   -2.222715   -0.753998   -1.715114
 C   -2.133417    0.624655   -1.911229
 C   -0.936424    1.270605   -1.588002
 C    0.140456    0.561958   -1.082133
 C   -3.302114    1.415408   -2.429226
 S   -4.081183    2.464349   -1.154669
 C   -5.099686    1.282113   -0.323589
 N   -5.586540    1.723140    0.873903
 C   -6.406854    0.955148    1.725203
 O   -6.787129    1.408385    2.788163
 C   -6.682673   -0.336639    1.146678
 C   -7.488882   -1.444741    1.739245
 C   -7.732184   -2.373483    0.522457
 C   -6.595113   -2.055071   -0.478133
 C   -6.176729   -0.669835   -0.073363
 N   -5.368757    0.122201   -0.839798
 H    7.109252   -1.528483    0.391764
 H    9.336765   -1.680633   -0.845820
 H    7.962345   -2.091333   -1.905852
 H    8.643993   -0.447701   -1.928801
 H    6.377347    0.162943    1.788583
 H    6.868299    2.575269    1.190490
 H    4.280508    1.899578    2.694020
 H    5.183257    3.417131    2.862440
 H    5.918503    1.891146    3.377748
 H    5.073477    4.012097    0.398682
 H    5.387244    2.772230   -0.829152
 H    3.956198    2.661181    0.232913
 H    4.038014    0.531791    0.048575
 H    0.605371   -3.700074   -0.075009
 H    3.154825   -3.900730    0.917808
 H   -1.239106   -2.542301   -1.069693
 H   -3.157508   -1.261674   -1.936709
 H   -0.855980    2.346940   -1.728114
 H    1.056347    1.090193   -0.837533
 H   -2.993880    2.117891   -3.211042
 H   -4.080716    0.766771   -2.837633
 H   -6.925970   -1.959358    2.530861
 H   -8.414218   -1.086511    2.202754
 H   -8.695325   -2.121381    0.067508
 H   -7.763986   -3.430732    0.798712
 H   -6.914112   -2.104908   -1.523815
 H   -5.751738   -2.750926   -0.363660
 H   -5.344559    2.645006    1.219557
