40 
5uzj_ligand_dft.xyz
 C   -4.360911    1.818765    2.761406
 C   -3.912818    2.473793   -0.782105
 C   -3.486651    0.420933   -1.981585
 C   -3.363331   -1.793325   -0.776781
 N   -0.981970   -1.299752   -0.436873
 C    0.348409   -1.503593   -0.115029
 C    4.910058   -0.399465    0.386140
 C    5.899550    0.565651    0.325560
 C    4.431249    2.212396   -0.243185
 O   -4.269108    2.488269    1.522228
 C   -4.014456    1.752782    0.415006
 C   -3.650764    1.808191   -1.966156
 C   -3.590742   -0.301561   -0.796527
 C   -3.852087    0.368445    0.405700
 C   -1.971433   -2.243296   -0.340269
 O   -1.747605   -3.378958    0.037708
 N    1.208599   -0.539627   -0.218929
 C    2.467806   -0.970689    0.151437
 C    2.530746   -2.277015    0.535027
 S    0.976905   -3.028717    0.442832
 C    3.589916   -0.013356    0.108734
 N    5.690477    1.848533    0.015341
 C    3.350915    1.315388   -0.208877
 N    4.227046    3.552273   -0.510794
 H   -5.184424    1.093480    2.765916
 H   -3.423343    1.306154    3.010891
 H   -4.557749    2.591157    3.505196
 H   -4.043392    3.550174   -0.751236
 H   -3.283929   -0.095081   -2.916006
 H   -3.526571   -2.221516   -1.772781
 H   -4.063716   -2.297774   -0.105009
 H   -1.209941   -0.358157   -0.731527
 H    5.167545   -1.423263    0.632748
 H    6.933824    0.297351    0.531988
 H   -3.574469    2.371244   -2.891329
 H   -3.922132   -0.208404    1.321953
 H    3.388933   -2.838677    0.874302
 H    2.340658    1.648583   -0.419290
 H    5.072091    4.050223   -0.752098
 H    3.428045    3.785230   -1.080707
