40 
5uzj_ligand_ani.xyz
 C   -6.547775   -1.736879    0.494663
 C   -5.515222    1.640293    1.306335
 C   -3.628499    2.278291   -0.055494
 C   -2.623697    0.676737   -1.737772
 N   -0.355625    0.217222   -0.925712
 C    0.747373   -0.509694   -0.499966
 C    5.214677   -1.129248    0.905349
 C    6.476923   -0.581383    1.046538
 C    5.865603    1.385953    0.073950
 O   -6.480946   -0.480444    1.129853
 C   -5.515273    0.377381    0.704848
 C   -4.570144    2.578523    0.928202
 C   -3.630407    1.026183   -0.658784
 C   -4.560311    0.063051   -0.258040
 C   -1.588391   -0.316992   -1.230778
 O   -1.829050   -1.500163   -1.088410
 N    1.895474    0.075896   -0.351275
 C    2.839857   -0.832908    0.088637
 C    2.384324   -2.102517    0.260407
 S    0.701805   -2.205254   -0.137460
 C    4.221574   -0.347641    0.301834
 N    6.819495    0.649046    0.646769
 C    4.553320    0.928671   -0.115226
 N    6.211964    2.671129   -0.296217
 H   -6.713722   -1.629128   -0.585158
 H   -5.631394   -2.318726    0.661124
 H   -7.395102   -2.258939    0.941602
 H   -6.264534    1.852931    2.063144
 H   -2.894170    3.022324   -0.353924
 H   -2.140939    1.576999   -2.132127
 H   -3.128305    0.185891   -2.576747
 H   -0.169008    1.200705   -1.063961
 H    5.016993   -2.134217    1.263182
 H    7.270213   -1.164721    1.510920
 H   -4.568130    3.559057    1.397759
 H   -4.505240   -0.930079   -0.697730
 H    2.936795   -2.977336    0.578102
 H    3.801976    1.562195   -0.574510
 H    7.207741    2.822547   -0.353312
 H    5.685159    3.079430   -1.053735
