91 
5v0n_ligand_ani.xyz
 C   -7.182862    0.056365    1.189267
 C   -9.027675   -0.497192   -0.265468
 C   -0.115126    1.262895   -2.080978
 C   -1.396509    1.588226   -2.855825
 C   -2.727208    1.429556   -0.851457
 C    1.471807   -0.337287    4.396692
 C    0.866442    1.033779    4.067357
 C   -1.598760   -1.514052   -0.280692
 C   -0.235716   -1.720084    0.302627
 C    1.428962   -1.422083    2.012998
 C    2.425637   -1.838302    1.099996
 C   -6.409975   -0.964068    0.632113
 C   -4.983854   -1.204782    1.080390
 C   -3.898416   -0.772102    0.067734
 C   -8.265493   -1.517275   -0.829399
 C   -3.967052    0.754618   -0.255144
 O    5.040108   -1.734258   -2.599672
 S    4.164964   -1.234624   -1.547736
 C    5.220101   -0.887504   -0.053197
 C    6.682562   -1.057928   -0.481084
 C    4.959871    0.549501    0.407476
 C    4.928189   -1.902767    1.082220
 N    3.648463   -1.730442    1.724393
 C    3.433707   -1.215710    2.980376
 C    2.103654   -1.001893    3.210342
 C    0.086334   -1.392153    1.610343
 N   -2.614281   -1.233954    0.569915
 C   -8.483260    0.289741    0.744709
 C   -6.967497   -1.745905   -0.384179
 O   -4.926085    0.979292   -1.293145
 N   -2.530307    0.903898   -2.228500
 N   -0.274176    1.492757   -0.644522
 C    0.963185    1.565360    0.129599
 C    1.651805    2.907483    0.007509
 C    2.769143    3.071330   -0.815889
 C    3.373308    4.320938   -0.943241
 C    2.865757    5.414895   -0.248532
 C    1.752794    5.258180    0.572082
 C    1.148690    4.010707    0.696087
 C   -1.467378    1.440882    0.015895
 O   -1.566763    1.465109    1.237392
 O   -1.769944   -1.542337   -1.506964
 C    0.768561   -2.130751   -0.598408
 C    2.104866   -2.196723   -0.219938
 N    3.147921   -2.540726   -1.131404
 C    2.765331   -3.335254   -2.303980
 O    3.325168   -0.066338   -1.813898
 H   -6.765216    0.677243    1.980924
 H  -10.042192   -0.317248   -0.612473
 H    0.189030    0.218564   -2.254722
 H    0.708550    1.894180   -2.431548
 H   -1.563680    2.672064   -2.833921
 H   -1.290030    1.290464   -3.901240
 H   -2.997776    2.487563   -0.949472
 H    2.220211   -0.223303    5.191978
 H    0.689466   -0.985092    4.816554
 H    0.071404    0.953164    3.316670
 H    1.635785    1.706878    3.668755
 H    0.440670    1.502451    4.960383
 H   -4.806965   -0.685961    2.032797
 H   -4.830211   -2.274438    1.266094
 H   -4.066253   -1.301399   -0.875281
 H   -8.682202   -2.137616   -1.618509
 H   -4.243031    1.299901    0.659355
 H    6.876865   -2.078633   -0.820620
 H    6.930332   -0.372620   -1.295936
 H    7.340131   -0.837857    0.368514
 H    5.202301    1.250394   -0.395475
 H    3.910175    0.686112    0.687681
 H    5.588143    0.784819    1.274579
 H    5.002590   -2.923612    0.695947
 H    5.690696   -1.775102    1.856273
 H    4.278622   -1.032373    3.634102
 H   -0.665867   -1.064583    2.325969
 H   -2.369865   -0.950475    1.508948
 H   -9.070584    1.087928    1.191185
 H   -6.370128   -2.538715   -0.834954
 H   -5.814934    0.795385   -0.958980
 H   -3.442808    1.030247   -2.691810
 H   -2.339032   -0.122282   -2.192677
 H    1.637285    0.768136   -0.207053
 H    0.694240    1.376930    1.172258
 H    3.167055    2.211256   -1.355969
 H    4.239811    4.444510   -1.588171
 H    3.337211    6.389159   -0.348510
 H    1.352774    6.109997    1.116870
 H    0.275810    3.886379    1.335263
 H    0.470606   -2.355927   -1.616740
 H    2.172345   -2.768478   -3.034912
 H    3.680341   -3.686394   -2.779378
 H    2.192147   -4.193965   -1.948256
