25 
5v1b_ligand_xtb.xyz
 N    5.846782    0.449827   -0.048916
 C    2.786191   -1.116262   -0.541040
 C    1.424535   -1.327826   -0.511642
 C    0.567911   -0.383955    0.060528
 C    1.108979    0.781514    0.605483
 C    2.470844    0.998379    0.583632
 C   -1.417590   -1.888867    0.255228
 C   -3.125986    0.233960   -0.046816
 C   -2.656832    2.253172   -0.329526
 C    4.714500    0.272904   -0.022929
 C    3.318633    0.050989    0.008909
 C   -0.875489   -0.635041    0.089071
 C   -2.805751   -2.093391    0.276042
 C   -3.668855   -1.042517    0.122426
 N   -3.692038    1.421197   -0.224947
 N   -1.466982    1.687708   -0.229627
 N   -1.745108    0.398257   -0.047032
 H    3.445200   -1.843805   -0.991269
 H    1.016454   -2.221557   -0.958884
 H    0.457275    1.519165    1.044380
 H    2.887056    1.899944    1.007573
 H   -0.757272   -2.729047    0.394970
 H   -2.768913    3.307690   -0.480895
 H   -3.185572   -3.093431    0.414886
 H   -4.739346   -1.156230    0.126690
