25 
5v1b_ligand_ani.xyz
 N    5.929673    0.389701   -0.021482
 C    2.776932   -1.001185   -0.705393
 C    1.404441   -1.186093   -0.671038
 C    0.573797   -0.307774    0.037678
 C    1.159449    0.764058    0.727146
 C    2.532981    0.937384    0.721174
 C   -1.357691   -1.875994    0.286986
 C   -3.165631    0.201025   -0.034155
 C   -2.769105    2.217259   -0.382305
 C    4.780314    0.244333   -0.010304
 C    3.350826    0.059041    0.002816
 C   -0.872943   -0.610486    0.090889
 C   -2.753000   -2.120439    0.343030
 C   -3.654024   -1.107358    0.180995
 N   -3.795062    1.355164   -0.244006
 N   -1.547842    1.711706   -0.277440
 N   -1.802603    0.402832   -0.046840
 H    3.408768   -1.682001   -1.266884
 H    0.970710   -2.017193   -1.222734
 H    0.522018    1.463596    1.256438
 H    2.978209    1.762883    1.267412
 H   -0.666233   -2.697611    0.429623
 H   -2.910737    3.272416   -0.576438
 H   -3.105806   -3.136539    0.508604
 H   -4.724169   -1.264002    0.207239
