41 
5v35_ligand_dft.xyz
 C   -6.043167   -0.262774   -1.293193
 C   -4.564086   -0.133599   -1.072532
 C   -3.919159    0.625512   -0.179807
 C   -2.409777    0.590589   -0.101838
 C   -1.875615   -0.000102    1.220218
 C   -0.371191   -0.045870    1.251131
 C    0.411789   -1.019857    0.773416
 C    1.916068   -0.891323    0.825033
 C    2.566989   -0.757490   -0.567937
 C    4.061527   -0.603642   -0.481098
 C    4.752102    0.539742   -0.419114
 C    4.127518    1.910705   -0.448065
 C    6.254989    0.539801   -0.305557
 C   -4.593673    1.536906    0.814763
 C   -0.115020   -2.277673    0.130291
 H   -6.635025    0.377859   -0.634863
 H   -6.304441   -0.013368   -2.329053
 H   -6.367926   -1.297480   -1.126102
 H   -3.954256   -0.751152   -1.733526
 H   -2.008189    1.608016   -0.216510
 H   -2.004819   -0.000245   -0.931608
 H   -2.307596   -0.999156    1.352404
 H   -2.232475    0.603551    2.062919
 H    0.117791    0.834185    1.670543
 H    2.347456   -1.767486    1.330776
 H    2.196615   -0.015857    1.421984
 H    2.105942    0.090097   -1.087328
 H    2.336090   -1.646802   -1.166762
 H    4.623597   -1.536585   -0.423752
 H    4.503547    2.490252   -1.301159
 H    3.037144    1.886340   -0.508468
 H    4.399596    2.470886    0.455807
 H    6.579231    1.054486    0.608445
 H    6.663326   -0.474987   -0.288255
 H    6.711167    1.077020   -1.147496
 H   -5.646525    1.715602    0.586300
 H   -4.542208    1.122237    1.829369
 H   -4.087964    2.510027    0.844784
 H   -1.189595   -2.410616    0.277161
 H    0.067635   -2.270795   -0.951671
 H    0.396128   -3.161579    0.531803
