61 
5v3o_ligand_ani.xyz
 C    3.106705   -1.512114    2.644794
 C    3.730595   -1.744261    1.409987
 C    2.974479   -1.967491    0.260156
 C    1.723534   -1.477819    2.751400
 C    0.988621   -1.710926    1.591981
 C    1.589815   -1.983388    0.376016
 N   -0.687439   -2.112883    0.089617
 N   -3.683016   -0.258024   -1.005845
 N   -0.293332    2.799517   -0.139732
 O   -1.351106   -1.374307    2.181667
 C    0.541003   -2.228021   -0.676570
 C   -0.483744   -1.705391    1.389338
 C   -1.965300   -1.951536   -0.566333
 C   -3.094073   -2.723823    0.118968
 C   -4.365106   -2.607040   -0.716965
 C   -4.738363   -1.170134   -1.023530
 C   -2.342912   -0.476183   -0.751627
 C    4.378534   -1.128845   -1.458927
 C    3.600699    0.155897   -1.561980
 O   -1.544754    0.444657   -0.747606
 C   -1.542834    3.608986   -0.134857
 C   -2.486835    3.149993    0.970386
 O   -1.870652    3.230472    2.243234
 C   -0.737630    2.383576    2.286608
 C    0.297529    2.781838    1.239540
 C    0.689450    3.308555   -1.141261
 C    1.777265    2.289048   -1.392947
 C    1.559195    1.238262   -2.288063
 C    2.467777    0.194129   -2.380774
 C    2.969195    2.311857   -0.668028
 C    3.865940    1.250601   -0.743164
 O    3.552013   -2.196581   -0.969026
 O   -5.861688   -0.807866   -1.293540
 H    3.724414   -1.342436    3.523137
 H    4.815532   -1.762801    1.343776
 H    1.218643   -1.281606    3.693082
 H   -3.951911    0.698148   -1.217504
 H   -0.524977    1.825166   -0.417240
 H    0.642764   -3.211732   -1.146328
 H    0.576968   -1.466462   -1.465046
 H   -1.851466   -2.348252   -1.583612
 H   -2.790920   -3.769080    0.217806
 H   -3.242539   -2.323115    1.124809
 H   -4.234170   -3.116615   -1.680564
 H   -5.224257   -3.071479   -0.226398
 H    4.714859   -1.488369   -2.437245
 H    5.260364   -1.005159   -0.816096
 H   -2.029652    3.520523   -1.113153
 H   -1.287156    4.664115    0.027321
 H   -2.810398    2.117206    0.774021
 H   -3.368846    3.796458    1.004809
 H   -1.037772    1.330551    2.164459
 H   -0.307169    2.500943    3.286686
 H    1.135661    2.080596    1.249507
 H    0.671899    3.785390    1.479994
 H    1.117059    4.250518   -0.769895
 H    0.150428    3.534830   -2.069344
 H    0.654440    1.229361   -2.894515
 H    2.277103   -0.636662   -3.057914
 H    3.169968    3.142758    0.007625
 H    4.765906    1.261343   -0.133189
