63 
5v5e_ligand_xtb.xyz
 C    4.948235   -0.606262   -0.810773
 C    4.741934    0.199127    1.997702
 C   -2.671802    1.223956   -0.105273
 C   -5.219695    0.192868    0.425474
 C   -5.015041    1.068842   -0.638531
 C   -3.759352    1.569387   -0.907535
 C    0.198813   -1.162428    2.454126
 C    1.049667    4.081566   -1.642111
 C    2.357307    4.414744   -1.320978
 C    2.995666    3.720605   -0.309986
 C    2.311695    2.698108    0.351793
 N    1.057625    2.398587    0.056239
 C    0.438896    3.070747   -0.913414
 C    2.962191    1.874312    1.420380
 C    4.165945    1.080024    0.888907
 C    3.765262    0.214254   -0.305476
 C    5.521371   -1.473976    0.304697
 C    5.933206   -0.607562    1.490031
 C   -0.985320    2.697046   -1.181482
 O   -1.642563    3.189997   -2.072994
 N   -1.411395    1.758026   -0.289365
 C   -2.868263    0.330703    0.966615
 C   -4.135580   -0.168227    1.221948
 C   -6.602592   -0.293515    0.684939
 O   -6.710130   -1.489723    1.298780
 O   -7.583300    0.322406    0.372073
 N   -1.799561   -0.001268    1.826291
 C   -0.713905   -0.772075    1.468129
 C    1.289526   -1.942504    2.135650
 C    1.511458   -2.354454    0.829749
 C    0.609127   -1.956488   -0.141118
 C   -0.495910   -1.181604    0.150973
 O    0.813660   -2.327062   -1.496289
 C    0.505982   -3.567908   -1.796517
 F   -0.757909   -3.907702   -1.471909
 F    0.636720   -3.761818   -3.103092
 F    1.277381   -4.493618   -1.191524
 H    5.726285    0.067039   -1.179153
 H    4.627624   -1.233027   -1.645008
 H    3.964590   -0.484458    2.346630
 H    5.047679    0.819981    2.843204
 H   -5.861407    1.349957   -1.244871
 H   -3.603894    2.254189   -1.724596
 H    0.034420   -0.854876    3.476546
 H    0.498365    4.582040   -2.421534
 H    2.867631    5.204980   -1.851760
 H    4.009782    3.960202   -0.030358
 H    2.218582    1.180266    1.816904
 H    3.295872    2.527996    2.230428
 H    4.941048    1.783368    0.564901
 H    2.956489   -0.453540   -0.004730
 H    3.387366    0.845967   -1.112567
 H    6.382182   -2.034834   -0.064550
 H    4.767009   -2.193512    0.629600
 H    6.324470   -1.234577    2.293873
 H    6.729156    0.074141    1.181370
 H   -0.682066    1.487057    0.368219
 H   -4.264686   -0.812211    2.083708
 H   -5.854086   -1.921031    1.416934
 H   -2.045083   -0.051957    2.805112
 H    1.976013   -2.244349    2.911687
 H    2.353990   -2.975448    0.573537
 H   -1.184005   -0.923222   -0.637035
