42 
5v5n_ligand_ani.xyz
 C    4.738333    1.319521   -0.293831
 C    4.099821   -0.018751   -0.069470
 C    4.918333   -1.079459    0.311915
 C    4.370395   -2.335046    0.548814
 C    3.003253   -2.533908    0.396168
 C    2.173872   -1.478298    0.011046
 C    0.707196   -1.772569   -0.142312
 C   -1.495754   -0.636814   -0.063899
 C   -3.566296   -1.101585    0.022961
 C   -3.492238    0.288769   -0.169065
 C   -4.624252    1.095345   -0.258169
 C   -5.855597    0.465374   -0.153629
 C   -5.948957   -0.925089    0.035722
 C   -4.817867   -1.718964    0.126499
 C   -1.553930    1.887476   -0.447549
 C   -1.205826    2.616312    0.847939
 C   -0.601897    3.993100    0.589216
 C    2.732086   -0.225308   -0.242794
 N    3.881643    2.391329   -0.235500
 N   -0.103738   -0.649490   -0.047200
 N   -2.292697   -1.654769    0.079850
 N   -2.137205    0.575156   -0.231150
 O    0.292608   -2.894095   -0.325487
 O    5.925914    1.447690   -0.528207
 H    5.984308   -0.896985    0.409266
 H    5.010393   -3.161157    0.845997
 H    2.555418   -3.509458    0.562629
 H   -4.552479    2.170820   -0.400071
 H   -6.765217    1.055524   -0.221614
 H   -6.929516   -1.387415    0.113328
 H   -4.889755   -2.793031    0.274716
 H   -0.678247    1.791200   -1.099086
 H   -2.286062    2.469611   -1.013596
 H   -0.506870    2.006201    1.433042
 H   -2.115814    2.710949    1.451872
 H    0.314804    3.916482   -0.008257
 H   -1.300398    4.637970    0.043672
 H   -0.347300    4.495803    1.527675
 H    2.127188    0.579996   -0.657955
 H    4.332534    3.295024   -0.227710
 H    3.031077    2.307136    0.299110
 H    0.347684    0.206347    0.237156
