50 
5v82_ligand_dft.xyz
 C    1.201971    1.256495   -0.388096
 C    3.334343   -2.340674   -0.442516
 C    0.492631    2.401186   -0.020596
 C    3.296628   -0.055704   -0.169069
 C    2.577532   -3.636781   -0.511375
 C    4.723535   -2.278881   -0.563064
 N    5.399388   -1.135592   -0.475679
 C    4.690264   -0.029369   -0.275957
 N    2.629530   -1.218835   -0.242019
 C    2.517704    1.191312    0.039199
 C    1.148989    3.469536    0.607533
 C    2.511155    3.324447    0.909403
 N    3.165485    2.202547    0.662299
 C    0.131419    4.465371    0.776957
 N   -1.021836    4.045716    0.329573
 N   -0.816566    2.783319   -0.163009
 C   -1.918403    1.984806   -0.509903
 C   -3.137551    2.553822   -0.874097
 C   -4.172450    1.686211   -1.185525
 C   -3.969271    0.305768   -1.144078
 C   -2.717868   -0.161259   -0.772524
 N   -1.718929    0.671908   -0.443362
 C   -2.399221   -1.648056   -0.699046
 C   -0.900614   -1.941897   -0.836549
 N   -0.176326   -1.452499    0.374669
 C   -0.613535   -2.123510    1.630018
 C   -2.106451   -1.879663    1.836650
 C   -2.893334   -2.298931    0.605187
 F   -2.762501   -3.653421    0.451525
 F   -4.208225   -2.037106    0.783164
 H    0.776574    0.481876   -1.007344
 H    2.068391   -3.839640    0.438401
 H    1.825839   -3.604715   -1.307775
 H    3.243939   -4.477732   -0.714551
 H    5.303720   -3.182961   -0.727806
 H    5.224889    0.911128   -0.196608
 H    3.075967    4.127886    1.375369
 H    0.213068    5.448819    1.218499
 H   -3.251696    3.629957   -0.900563
 H   -5.139650    2.084310   -1.473647
 H   -4.765437   -0.386492   -1.391924
 H   -2.920891   -2.163314   -1.511711
 H   -0.473709   -1.432755   -1.702771
 H   -0.720454   -3.014492   -0.929541
 H    0.867460   -1.484249    0.217825
 H   -0.420145   -0.444067    0.416744
 H   -0.022016   -1.714618    2.450635
 H   -0.394962   -3.189422    1.531347
 H   -2.299888   -0.821069    2.036941
 H   -2.464527   -2.455021    2.693658
