34 
5v8q_ligand_dft.xyz
 C   -3.640173   -0.608679   -0.886845
 C   -3.979453    0.823650   -0.484772
 C    0.243312    2.020044    0.123218
 C    2.501824    1.132087    0.137102
 C    2.912560   -1.329876   -0.257730
 C   -2.854164   -0.791366    2.201362
 C   -2.176630   -1.539290    1.055371
 C   -2.223712   -0.844974   -0.313272
 O   -4.513924   -1.600134   -0.404824
 C   -2.631489    1.504246   -0.353620
 O   -2.451601    2.702564   -0.311456
 N   -1.655899    0.514946   -0.290341
 C   -0.276584    0.745091   -0.144374
 C    1.610664    2.199617    0.257722
 C    3.907188    1.375176    0.296561
 N    5.032071    1.616580    0.433835
 C    1.985276   -0.143008   -0.131008
 C    0.620810   -0.327082   -0.270047
 F    3.807019   -1.148461   -1.238156
 F    2.239485   -2.460203   -0.532174
 F    3.592904   -1.535483    0.878266
 H   -3.568255   -0.663102   -1.982854
 H   -4.600621    1.367388   -1.199963
 H   -4.477946    0.847173    0.490001
 H   -0.424346    2.863099    0.214891
 H   -2.671220   -1.309854    3.147043
 H   -3.936234   -0.742488    2.054093
 H   -2.463791    0.227128    2.306602
 H   -2.635976   -2.524430    0.931084
 H   -1.124981   -1.711881    1.310719
 H   -1.663296   -1.455459   -1.027550
 H   -5.360389   -1.498457   -0.854690
 H    1.999903    3.190623    0.464482
 H    0.266908   -1.326357   -0.477513
