34 
5v8q_ligand_ani.xyz
 C   -3.680597   -0.769720   -0.712747
 C   -3.981826    0.723031   -0.616696
 C    0.155808    1.930754    0.173044
 C    2.432373    1.109224    0.248675
 C    2.972805   -1.282007   -0.356386
 C   -2.771058   -0.405774    2.295171
 C   -2.141750   -1.360219    1.285412
 C   -2.246461   -0.915244   -0.175608
 O   -4.562431   -1.599688    0.013601
 C   -2.619595    1.381550   -0.691111
 O   -2.400372    2.551417   -0.929288
 N   -1.668985    0.408076   -0.424522
 C   -0.292322    0.667060   -0.230937
 C    1.501994    2.138372    0.413823
 C    3.820944    1.379758    0.516408
 N    4.921366    1.654216    0.746132
 C    1.985440   -0.149877   -0.174375
 C    0.637705   -0.362132   -0.409792
 F    3.915704   -0.975580   -1.263399
 F    2.368257   -2.411550   -0.770453
 F    3.612306   -1.567564    0.791046
 H   -3.669529   -1.069393   -1.769150
 H   -4.638360    1.096621   -1.403852
 H   -4.435684    0.967763    0.349174
 H   -0.547924    2.743705    0.290126
 H   -2.592452   -0.765585    3.313295
 H   -3.852856   -0.342706    2.147895
 H   -2.345235    0.600352    2.211274
 H   -2.609143   -2.347787    1.361888
 H   -1.075884   -1.492483    1.513431
 H   -1.724222   -1.656174   -0.790753
 H   -5.448357   -1.471245   -0.346155
 H    1.848426    3.116117    0.731841
 H    0.319815   -1.345485   -0.738824
