77 
5vb5_ligand_ani.xyz
 C   -1.103892    3.858972   -0.740818
 C   -0.249966    3.321373    0.406874
 C    0.416252    2.000021    0.049492
 C    0.930583   -2.514985    0.537086
 C   -1.417802   -2.731432    0.992359
 C   -3.055007   -4.177646   -0.200298
 C   -4.979365   -3.152299   -1.462609
 C   -4.715979   -1.752479   -0.954950
 C   -3.560904   -1.054705   -1.319602
 C   -4.122345    0.726281    0.174312
 C   -5.293125    0.073651    0.538658
 C   -1.341805   -1.584191    1.789989
 O    4.165353    2.073635    1.027920
 C    3.848362    1.116025    0.333389
 N    4.747011    0.468627   -0.463143
 C    6.130040    0.934899   -0.493051
 C    7.071204   -0.168805   -0.020162
 C    6.884237   -1.451290   -0.837420
 C    7.801188   -2.567779   -0.342369
 C    5.412072   -1.870866   -0.798473
 C    4.504301   -0.729710   -1.252926
 C    2.403702    0.599073    0.373604
 N    1.557404    1.710894    0.740346
 O   -0.052783    1.239517   -0.785724
 C   -1.910655    5.113739   -0.389602
 C   -2.893842    5.435034   -1.515814
 C   -1.008726    6.318148   -0.111890
 C    2.307241   -0.572960    1.384681
 C    1.013665   -1.342088    1.288983
 C   -0.145283   -0.896958    1.927940
 C   -0.260135   -3.212777    0.380912
 N   -2.674297   -3.354972    0.841189
 O   -2.273264   -4.785486   -0.908334
 C   -4.553016   -4.236128   -0.442967
 C   -5.578987   -1.162061   -0.028422
Cl   -3.751289    2.258713    0.916622
 C   -3.248716    0.176692   -0.756175
 H   -1.779392    3.061490   -1.071281
 H   -0.460286    4.076524   -1.605168
 H    0.520691    4.048138    0.695189
 H   -0.869222    3.155073    1.299493
 H    1.822993   -2.902557    0.046058
 H   -6.044780   -3.276981   -1.689860
 H   -4.428146   -3.321744   -2.394615
 H   -2.876657   -1.501778   -2.038592
 H   -5.965665    0.529843    1.259648
 H   -2.228595   -1.229477    2.312358
 H    6.385835    1.222382   -1.524174
 H    6.188435    1.822999    0.137506
 H    6.862817   -0.385279    1.037052
 H    8.112603    0.173058   -0.079206
 H    7.143163   -1.225227   -1.884879
 H    8.855058   -2.273670   -0.401918
 H    7.668715   -3.482945   -0.930195
 H    7.580840   -2.808356    0.704977
 H    5.248233   -2.752490   -1.430971
 H    5.149309   -2.161734    0.229204
 H    3.454655   -1.018426   -1.192341
 H    4.716571   -0.502324   -2.308476
 H    2.071145    0.256081   -0.609870
 H    2.030981    2.440918    1.257455
 H   -2.492574    4.903752    0.518970
 H   -2.355405    5.643060   -2.449584
 H   -3.496974    6.316887   -1.272874
 H   -3.577642    4.598273   -1.700462
 H   -1.606363    7.212674    0.097842
 H   -0.348482    6.155318    0.746517
 H   -0.379111    6.537053   -0.984573
 H    3.152440   -1.253331    1.220425
 H    2.438951   -0.155167    2.390038
 H   -0.110505    0.005523    2.535090
 H   -0.305176   -4.114068   -0.216115
 H   -3.429592   -2.825990    1.253518
 H   -4.776072   -5.228973   -0.840909
 H   -5.104051   -4.113666    0.497393
 H   -6.493668   -1.678653    0.259239
 H   -2.328213    0.694004   -1.018520
