70 
5vb7_ligand_ani.xyz
 C    3.069369   -0.890682    0.783800
 C    4.559081   -0.607756    0.972413
 C    5.314167   -0.678152   -0.364978
 C    3.189236    0.002567   -1.578025
 C    8.646484    1.000973    0.381401
 C    9.073454   -1.182266   -0.055782
 C    0.208955    0.860204   -0.687150
 C   -1.986049    1.768399   -1.126219
 C   -2.103487    2.957443   -0.204998
 C   -3.221575    3.398194    0.376861
 C   -3.226551    4.676821    1.172068
 C   -1.237364   -0.252842    1.716474
 C   -2.956695   -1.851053    2.306154
 C    0.574662   -1.592535   -0.604036
 N    1.006820   -0.219567   -0.387837
 C    2.437701    0.051488   -0.241788
 C    4.679504    0.285886   -1.379552
 C    6.794791   -0.426306   -0.172028
 C    7.282044    0.832947    0.173574
 N    9.546241    0.020793    0.273785
 C    7.728661   -1.455088   -0.285255
 O    0.672122    1.932488   -1.059610
 N   -1.172238    0.683932   -0.569970
 C   -4.535796    2.661999    0.268312
 C   -1.782132   -0.133734    0.433330
 C   -1.825692   -1.115473    2.634644
 C   -3.521920   -1.686270    1.044504
 O   -4.627259   -2.450919    0.739680
 C   -5.619763   -1.825689    0.009752
 C   -6.279760   -0.708909    0.516643
 C   -7.290901   -0.117006   -0.235183
 C   -7.637402   -0.637742   -1.478489
 C   -6.980197   -1.764676   -1.965825
 C   -5.972870   -2.367508   -1.219145
 C   -2.956767   -0.818506    0.115362
 H    2.532895   -0.796817    1.736087
 H    2.945718   -1.928319    0.444210
 H    4.997510   -1.318168    1.682295
 H    4.703798    0.392738    1.405762
 H    5.198387   -1.697786   -0.760720
 H    2.746645    0.734924   -2.260701
 H    3.059633   -0.991321   -2.031194
 H    9.037716    1.980881    0.650947
 H    9.810373   -1.979753   -0.142254
 H   -1.497016    2.075064   -2.054503
 H   -2.971360    1.363686   -1.378487
 H   -1.169027    3.485525   -0.018210
 H   -2.232599    5.133803    1.217429
 H   -3.918526    5.404784    0.731591
 H   -3.566872    4.494146    2.198420
 H   -0.359433    0.323041    1.997246
 H   -3.420903   -2.540495    3.004696
 H    0.373717   -2.098149    0.350320
 H   -0.337598   -1.610843   -1.203475
 H    1.345840   -2.156538   -1.139672
 H    2.509055    1.077781    0.138382
 H    5.210694    0.219793   -2.335817
 H    4.804124    1.319434   -1.025618
 H    6.615804    1.685110    0.289102
 H    7.418547   -2.462678   -0.551154
 H   -4.997820    2.803247   -0.717122
 H   -4.404202    1.582649    0.418650
 H   -5.244410    3.028887    1.018051
 H   -1.389987   -1.220546    3.624740
 H   -6.011251   -0.322373    1.496933
 H   -7.810305    0.757353    0.151600
 H   -8.424942   -0.170086   -2.062948
 H   -7.252710   -2.180014   -2.932921
 H   -5.445088   -3.247726   -1.575761
 H   -3.420195   -0.698256   -0.859337
