27 
5vdw_ligand_xtb.xyz
 N   -2.323027    0.569020   -0.017283
 C    1.899349   -0.142614   -0.256190
 N    0.623570    0.333463   -0.435062
 C   -0.215234   -0.697188   -0.083385
 C    2.875899   -2.256724    0.451942
 C    0.246544    2.685862    0.164092
 C    0.296725    1.630497   -0.963911
 C    4.109871   -1.672348    0.274701
 C    4.243096   -0.347015   -0.152441
 C    3.145324    0.441954   -0.425097
 C    1.751695   -1.479465    0.183838
 N    0.423903   -1.782647    0.274387
 O    1.105770    3.507364    0.304639
 O   -0.805153    2.592919    0.958068
 C   -1.656704   -0.621862   -0.081928
 C   -2.477842   -1.718035   -0.100302
 S   -4.120807   -1.241342   -0.042643
 C   -3.599752    0.400584    0.008522
 H    2.767683   -3.275283    0.787352
 H   -0.671563    1.588096   -1.470576
 H    1.072635    1.924838   -1.675644
 H    5.003073   -2.245524    0.474260
 H    5.232820    0.068896   -0.266237
 H    3.252194    1.470101   -0.734513
 H   -1.436032    1.878617    0.668762
 H   -2.181577   -2.744792   -0.139877
 H   -4.296210    1.213534    0.063757
