27 
5vdw_ligand_ani.xyz
 N   -2.434314    0.675771   -0.365471
 C    1.819294   -0.251494   -0.243238
 N    0.565100    0.335407   -0.339569
 C   -0.345711   -0.689288   -0.116701
 C    2.665247   -2.468733    0.249466
 C    0.623073    2.774056    0.219599
 C    0.336104    1.687481   -0.819145
 C    3.943358   -1.955300    0.116626
 C    4.161343   -0.600018   -0.191806
 C    3.101650    0.276715   -0.376672
 C    1.580226   -1.600012    0.066565
 N    0.222158   -1.839657    0.140104
 O    0.805462    3.917516   -0.100891
 O    0.618856    2.388060    1.503832
 C   -1.796255   -0.525959   -0.112621
 C   -2.621417   -1.574711    0.165992
 S   -4.253139   -1.064091    0.125491
 C   -3.716635    0.526351   -0.265107
 H    2.495420   -3.514649    0.489361
 H   -0.716107    1.772082   -1.097392
 H    0.953425    1.887063   -1.696676
 H    4.796583   -2.614415    0.255072
 H    5.179398   -0.234871   -0.287844
 H    3.269885    1.326406   -0.607777
 H    0.462256    1.430155    1.539891
 H   -2.326684   -2.591717    0.387125
 H   -4.430772    1.325612   -0.416342
