85 
5vfc_ligand_ani.xyz
 C    6.589788   -4.345603    0.829447
 N    5.482947   -3.753061    0.099968
 C    5.574338   -2.405689   -0.220799
 N    6.674611   -1.775615   -0.050698
 N    4.358578   -1.918148   -0.715803
 C    4.248501   -0.541384   -1.170142
 C    4.117987    0.448311   -0.007369
 C    3.010902    0.089809    0.986463
 C    1.647096   -0.120612    0.326476
 C    0.598219   -0.470532    1.388029
 O    0.426243   -1.642285    1.714475
 N    1.256870    1.009862   -0.494576
 N   -0.106528    0.540846    1.958830
 C   -1.198574    0.241486    2.875029
 C   -2.505426   -0.066535    2.114997
 O   -3.541470    0.541104    2.338790
 C   -1.419618    1.370003    3.875421
 C   -0.227726    1.600143    4.799802
 O    0.150210    3.418028    0.394459
 C   -0.076681    6.238801    0.237332
 C    2.206277    5.527097   -0.594486
 C    0.589223    0.813822   -1.660405
 C   -0.492161    1.825435   -3.654433
 N    0.204915    3.286478   -1.879766
 C    0.688204    5.423122   -0.803547
 C    0.295866    3.958362   -0.703843
 C   -0.351085    1.947935   -2.133619
 C   -1.724920    1.788874   -1.433504
 C   -2.402141    0.430524   -1.611775
 O    0.668210   -0.226196   -2.301724
 N   -3.737090    0.483835   -1.040644
 N   -2.435222   -1.048626    1.175325
 C   -3.664342   -1.501145    0.537307
 C   -3.427542   -2.781331   -0.252844
 C   -3.401009   -2.839170   -1.645776
 C   -3.151460   -4.041452   -2.303104
 C   -2.935088   -5.207824   -1.576553
 C   -2.970781   -5.164035   -0.185529
 C   -3.212994   -3.960011    0.467437
 C   -4.409536   -0.410574   -0.259327
 O   -5.624889   -0.372575   -0.180202
 H    6.807405   -3.825895    1.771832
 H    6.352360   -5.392568    1.035892
 H    7.491934   -4.305996    0.214847
 H    4.568211   -4.006336    0.448625
 H    6.600469   -0.818329   -0.384288
 H    3.889881   -2.596276   -1.302315
 H    5.101487   -0.260966   -1.808166
 H    3.359201   -0.478459   -1.805972
 H    3.935676    1.443514   -0.429740
 H    5.069035    0.505000    0.537424
 H    3.267416   -0.833168    1.517134
 H    2.933758    0.883783    1.741079
 H    1.686278   -1.001401   -0.320359
 H    1.134776    1.896357   -0.024230
 H   -0.059511    1.483921    1.581691
 H   -0.897065   -0.679567    3.394759
 H   -2.316007    1.126905    4.454946
 H   -1.662231    2.287703    3.323006
 H    0.023584    0.686915    5.352348
 H   -0.454231    2.380273    5.533366
 H    0.660205    1.910907    4.238967
 H   -1.158245    6.175269    0.081928
 H    0.217664    7.293107    0.189673
 H    0.142921    5.858707    1.239048
 H    2.754725    4.954975   -1.350508
 H    2.536088    6.569973   -0.650004
 H    2.474903    5.134389    0.392381
 H   -0.795927    0.818122   -3.938397
 H   -1.232857    2.542239   -4.027276
 H    0.469173    2.024100   -4.140508
 H    0.360652    3.830445   -2.716762
 H    0.437490    5.782985   -1.810560
 H   -1.616093    1.999961   -0.367227
 H   -2.392074    2.564446   -1.835268
 H   -1.833112   -0.367770   -1.130192
 H   -2.469915    0.184854   -2.681659
 H   -4.371002    1.163197   -1.444128
 H   -1.611884   -1.644422    1.148969
 H   -4.398677   -1.743610    1.315851
 H   -3.585655   -1.944062   -2.236461
 H   -3.132083   -4.063311   -3.388796
 H   -2.742803   -6.146366   -2.089896
 H   -2.805306   -6.069398    0.393635
 H   -3.232513   -3.934715    1.556365
