21 
5vfj_ligand_ani.xyz
 C   -3.727864    0.046590    0.003333
 O   -4.588434    1.087989    0.083943
 C   -2.280537    0.399859    0.027497
 C   -1.363916   -0.571528   -0.035708
 C    0.100078   -0.444569   -0.025054
 C    0.759326    0.792282   -0.048494
 C    2.142011    0.852806   -0.026258
 C    2.891197   -0.332755    0.019901
 C    2.251459   -1.562034    0.037698
 C    0.861095   -1.614356    0.013206
 O    4.249352   -0.156889    0.042598
 O    2.769886    2.056456   -0.048281
 O   -4.151806   -1.077597   -0.080842
 H   -4.104086    1.922157    0.147837
 H   -2.001648    1.448413    0.106473
 H   -1.742814   -1.591544   -0.094045
 H    0.208870    1.728632   -0.092203
 H    2.835859   -2.479710    0.070590
 H    0.362806   -2.580156    0.028160
 H    4.687955   -1.015548    0.082281
 H    3.723972    1.890315   -0.025146
