20 
5vfm_ligand_xtb.xyz
 C    3.443144    0.036548   -0.000217
 O    3.779644    1.191130    0.013159
 O    4.376122   -0.943647   -0.013696
 C    2.043675   -0.419226   -0.003490
 C    1.048335    0.480072    0.005709
 C   -0.374093    0.230869    0.003668
 C   -0.929442   -1.054277    0.010657
 C   -2.292458   -1.240852    0.008506
 C   -3.151369   -0.141880   -0.001310
 C   -2.615527    1.143000   -0.008256
 C   -1.248865    1.321926   -0.005286
 O   -4.485383   -0.370805   -0.003516
 H    3.982128   -1.825199   -0.024795
 H    1.863313   -1.485584   -0.014660
 H    1.347725    1.521805    0.014577
 H   -0.285521   -1.919485    0.019128
 H   -2.722643   -2.229724    0.014664
 H   -3.276762    1.999609   -0.015589
 H   -0.843399    2.322965   -0.010909
 H   -4.968296    0.465109   -0.009872
