19 
5vfn_ligand_dft.xyz
 C   -3.030988   -0.156514   -0.052590
 O   -3.840562   -0.896146   -0.548727
 O   -3.418417    1.032660    0.466910
 C   -1.580634   -0.484196    0.007925
 C   -0.601504    0.429771    0.021909
 C    0.845562    0.175120    0.014709
 C    1.391459   -1.097796    0.228498
 C    2.765982   -1.289351    0.206320
 C    3.622103   -0.214000   -0.026106
 C    3.094067    1.056444   -0.232199
 C    1.717219    1.247624   -0.207901
 H   -2.697064    1.415400    0.982984
 H   -1.373432   -1.546998   -0.064542
 H   -0.869413    1.487382   -0.003321
 H    0.739916   -1.943769    0.424616
 H    3.172956   -2.281543    0.375422
 H    4.696783   -0.367336   -0.041720
 H    3.753485    1.900072   -0.411069
 H    1.308997    2.242068   -0.371223
