33 
5vgy_ligand_ani.xyz
 C   -1.125373   -1.716372   -0.441071
 C   -2.390645   -1.460905    0.085209
 C   -2.144036    0.858077   -0.559477
 C   -0.356025   -0.729757   -1.044899
 C   -2.900060   -0.166942    0.019524
 C   -0.885647    0.573945   -1.078064
 C    1.975724   -1.516207    0.670484
 C    1.878880    0.751394    1.123115
 C    2.172358   -0.753363   -0.659312
 C   -4.912113   -0.793566    1.101736
 C   -0.508062    2.865514   -1.556884
 C    1.007920   -1.026735   -1.613611
 N    1.808288   -0.533885    1.621117
 N    2.244778    0.617174   -0.181728
 O    1.934412   -2.709159    0.841684
 O    3.329491   -1.136049   -1.329729
 O   -4.118141    0.203146    0.495023
 O   -0.098005    1.516784   -1.667201
 S    1.609219    2.143420    1.978889
 H   -0.718992   -2.722763   -0.364539
 H   -2.957946   -2.266610    0.536428
 H   -2.566251    1.856585   -0.581548
 H   -4.414042   -1.222895    1.981139
 H   -5.152008   -1.600421    0.396606
 H   -5.832913   -0.297864    1.412307
 H    0.288735    3.458357   -2.009248
 H   -1.444047    3.046506   -2.099282
 H   -0.624478    3.154904   -0.504425
 H    1.089053   -2.084008   -1.880978
 H    1.205200   -0.443845   -2.518653
 H    1.588248   -0.727546    2.586787
 H    2.087403    1.386180   -0.820165
 H    4.073501   -0.722601   -0.871091
