26 
5vh0_ligand_ani.xyz
 C   -3.505414   -0.000289    0.001060
 C   -2.825297    1.208965    0.000660
 C   -1.420849    1.228442   -0.000347
 C   -0.675038    2.464597   -0.000667
 C    0.674974    2.464646   -0.000481
 C    1.420875    1.228455   -0.000350
 C    2.825387    1.208966    0.000302
 C    3.505417   -0.000319    0.001030
 C    2.824926   -1.209336    0.000650
 C    1.420520   -1.228182   -0.000319
 C    0.715482    0.000247   -0.000585
 C   -0.715436    0.000262   -0.000626
 C   -1.420548   -1.228116   -0.000399
 C   -2.824915   -1.209299    0.000288
 C   -0.674982   -2.464386   -0.000479
 C    0.674916   -2.464407   -0.000636
 H   -4.594027   -0.000457    0.002155
 H   -3.373450    2.147791    0.001310
 H   -1.229745    3.401453   -0.000926
 H    1.229611    3.401572   -0.000069
 H    3.373636    2.147777    0.000338
 H    4.594046   -0.000482    0.002015
 H    3.372788   -2.148362    0.001273
 H   -3.372727   -2.148401    0.000263
 H   -1.229880   -3.401134   -0.000120
 H    1.229640   -3.401224   -0.000854
