18 
5vkf_ligand_ani.xyz
 C    1.243123   -1.398715   -0.000234
 C    2.425714   -0.708608    0.000035
 C    2.425735    0.708567    0.000227
 C    1.243174    1.398708    0.000023
 C    0.000003    0.709872   -0.000157
 C   -1.243157    1.398664   -0.000157
 C   -2.425696    0.708592    0.000003
 C   -2.425729   -0.708565    0.000207
 C   -1.243153   -1.398697    0.000061
 C   -0.000031   -0.709843   -0.000101
 H    1.237165   -2.486859   -0.000391
 H    3.372725   -1.242305   -0.000015
 H    3.372713    1.242346    0.000695
 H    1.237053    2.486844   -0.000128
 H   -1.236980    2.486790   -0.000193
 H   -3.372635    1.242394   -0.000098
 H   -3.372710   -1.242211    0.000595
 H   -1.237230   -2.486847    0.000094
