61 
5vkm_ligand_ani.xyz
 C   -2.829116   -1.174349    0.943214
 C   -4.217758   -0.978097    0.364135
 C   -4.123082   -0.531454   -1.084237
 C   -3.261209    0.726451   -1.178242
 C   -1.927975    0.502845   -0.463232
 C   -1.070932    1.758336   -0.429147
 O   -2.972982   -1.600445    2.257099
 O   -4.967610   -2.173565    0.390319
 O   -5.401734   -0.205037   -1.593542
 O   -3.928518    1.805196   -0.566673
 O   -2.132324    0.058256    0.884778
 O    0.203880    1.382302    0.080373
 C    1.249182    3.534716   -0.113150
 C    1.349830    2.026911   -0.404233
 C    1.665039    1.725913   -1.863638
 C    1.748602    0.222105   -2.106454
 C    2.151096   -0.576657   -0.836326
 C    2.918430    0.286986    0.194592
 C    3.049063   -0.276941    1.620767
 C    1.820835   -0.105860    2.516546
 C    0.596819   -0.929170    2.137359
 C    2.562708   -2.740525   -1.972282
 C    3.455763   -3.961757   -2.015940
 N    2.977874   -1.729908   -1.166615
 O    2.154539    4.253204   -0.799375
 O    0.472426    4.037193    0.656088
 O    0.482662   -0.219454   -2.553984
 O    2.413268    1.607868    0.393884
 O    3.448924   -1.634027    1.579087
 O    2.253640   -0.537478    3.803453
 O   -0.447483   -0.689638    3.085716
 O    1.531249   -2.695109   -2.643247
 H   -2.265925   -1.924050    0.349404
 H   -4.705251   -0.180352    0.942569
 H   -3.666366   -1.340339   -1.679554
 H   -3.060535    0.944005   -2.243107
 H   -1.356414   -0.265814   -1.010637
 H   -1.517375    2.520717    0.216125
 H   -0.976386    2.167312   -1.444437
 H   -2.093831   -1.558758    2.674921
 H   -4.970597   -2.473501    1.309646
 H   -6.001862   -0.906201   -1.298430
 H   -4.845790    1.751706   -0.875929
 H    2.623972    2.198802   -2.091721
 H    0.918209    2.154091   -2.536365
 H    2.507160    0.033312   -2.877073
 H    1.206120   -0.921429   -0.415103
 H    3.941844    0.402539   -0.198058
 H    3.839159    0.319846    2.097143
 H    1.549535    0.958316    2.541381
 H    0.837916   -1.997592    2.181176
 H    0.223697   -0.680364    1.148056
 H    3.620459   -4.232499   -3.062240
 H    2.934192   -4.799638   -1.541864
 H    4.421807   -3.818760   -1.522586
 H    3.678569   -1.958564   -0.472521
 H    2.037274    5.172567   -0.508176
 H    0.610366   -1.168631   -2.767539
 H    3.423303   -1.933211    2.501334
 H    1.443074   -0.632499    4.326436
 H   -0.904700    0.107490    2.773269
