61 
5vkm_ligand_dft.xyz
 C   -2.777616   -1.033788    0.995354
 C   -4.158508   -0.737458    0.428150
 C   -4.027261   -0.179921   -0.978084
 C   -3.104550    1.039174   -0.980988
 C   -1.797136    0.698774   -0.264614
 C   -0.897963    1.910983   -0.132753
 O   -2.950030   -1.528489    2.273662
 O   -4.962862   -1.894640    0.349635
 O   -5.282236    0.240668   -1.476299
 O   -3.726447    2.126866   -0.338449
 O   -2.025763    0.167179    1.038824
 O    0.384457    1.472161    0.307890
 C    1.661187    3.515816    0.176648
 C    1.540975    2.034144   -0.241475
 C    1.688317    1.865985   -1.756265
 C    1.606101    0.393547   -2.175221
 C    1.905503   -0.566295   -0.988276
 C    2.894219    0.052537    0.023652
 C    3.062991   -0.657497    1.378307
 C    1.886549   -0.580149    2.354476
 C    0.609765   -1.318121    1.972194
 C    1.838761   -2.716922   -2.222233
 C    2.468880   -4.087906   -2.342036
 N    2.483038   -1.840394   -1.415887
 O    2.807809    4.063730   -0.252026
 O    0.824547    4.122164    0.793641
 O    0.313062    0.186042   -2.687486
 O    2.617585    1.403883    0.383673
 O    3.451631   -2.004305    1.169183
 O    2.399485   -1.167739    3.545552
 O   -0.303946   -1.238068    3.070260
 O    0.811966   -2.447925   -2.845816
 H   -2.247360   -1.759444    0.348040
 H   -4.611396    0.026297    1.075835
 H   -3.597547   -0.960945   -1.624739
 H   -2.858661    1.287996   -2.025894
 H   -1.269463   -0.043036   -0.882249
 H   -1.305263    2.620984    0.588759
 H   -0.835908    2.400247   -1.108841
 H   -2.074936   -1.787314    2.617034
 H   -4.995475   -2.268161    1.240425
 H   -5.916495   -0.449294   -1.237603
 H   -4.646746    2.111041   -0.640894
 H    2.660789    2.291297   -2.015440
 H    0.930263    2.419043   -2.315717
 H    2.364457    0.205081   -2.950135
 H    0.942077   -0.750119   -0.517175
 H    3.880044    0.043495   -0.464228
 H    3.878394   -0.116758    1.880951
 H    1.645840    0.478950    2.512529
 H    0.817569   -2.378253    1.807689
 H    0.139502   -0.886189    1.091370
 H    2.639399   -4.300383   -3.400249
 H    1.758715   -4.831141   -1.968714
 H    3.411706   -4.185885   -1.798572
 H    3.160686   -2.233819   -0.773012
 H    2.799844    4.986972    0.048825
 H    0.264973   -0.769900   -2.897627
 H    3.477619   -2.400146    2.053378
 H    1.630486   -1.324461    4.112899
 H   -0.699738   -0.353039    3.015589
