61 
5vkm_ligand_xtb.xyz
 C   -2.353376   -0.938300    0.192640
 C   -3.783455   -0.438020    0.457212
 C   -4.024517    0.826567   -0.370662
 C   -2.960963    1.876961   -0.012010
 C   -1.560320    1.267318   -0.170049
 C   -0.487760    2.227385    0.371878
 O   -2.085890   -2.093260    0.910250
 O   -4.733914   -1.411979    0.100738
 O   -5.287444    1.383042   -0.090842
 O   -3.146547    2.321539    1.306131
 O   -1.430648    0.057841    0.562685
 O    0.776368    1.600435    0.474745
 C    2.323030    3.285739   -0.313544
 C    1.791288    1.842452   -0.474792
 C    1.424576    1.613675   -1.947914
 C    1.122460    0.132697   -2.254990
 C    1.351820   -0.739939   -0.995967
 C    2.704080   -0.374079   -0.367321
 C    3.056696   -1.078365    0.964634
 C    2.086032   -0.783994    2.120868
 C    0.872558   -1.726992    2.196796
 C    0.386117   -2.922381   -1.774006
 C    0.629008   -4.406697   -1.652195
 N    1.393300   -2.167647   -1.295731
 O    3.426515    3.483110   -1.024629
 O    1.801553    4.133877    0.351882
 O   -0.196449    0.082980   -2.717811
 O    2.864315    1.019707   -0.122039
 O    3.235397   -2.463330    0.741585
 O    2.858013   -0.886991    3.306757
 O   -0.233322   -1.105496    2.811680
 O   -0.632215   -2.471695   -2.277088
 H   -2.251566   -1.194542   -0.876389
 H   -3.873555   -0.191144    1.528763
 H   -3.946863    0.568085   -1.437662
 H   -3.054939    2.723930   -0.710328
 H   -1.393645    1.049656   -1.234812
 H   -0.765150    2.506849    1.391214
 H   -0.452416    3.127302   -0.243027
 H   -1.748607   -1.841221    1.790557
 H   -4.346649   -2.276715    0.289108
 H   -5.926803    0.661066   -0.128703
 H   -4.098367    2.463753    1.411146
 H    2.272923    1.957541   -2.538983
 H    0.545878    2.197742   -2.221223
 H    1.807680   -0.229310   -3.041458
 H    0.533349   -0.527841   -0.300071
 H    3.486052   -0.665077   -1.088026
 H    4.013793   -0.629840    1.272450
 H    1.730637    0.247912    1.992302
 H    1.120891   -2.587118    2.826149
 H    0.603337   -2.097726    1.202900
 H    0.367900   -4.717832   -0.642112
 H    1.670085   -4.653639   -1.838637
 H   -0.011850   -4.935117   -2.352048
 H    2.148838   -2.654071   -0.829585
 H    3.769721    4.381032   -0.876734
 H   -0.500734   -0.856118   -2.688985
 H    3.529576   -2.846658    1.576167
 H    2.286399   -0.672380    4.052723
 H   -0.458525   -0.317404    2.289605
