28 
5vl2_ligand_ani.xyz
 C   -2.947556    1.060429    0.095847
 C   -1.890374    0.172562   -0.114713
Cl   -5.530450    1.753866    0.373148
Cl    7.481354   -0.450014    0.105417
 C    0.603942    0.021072   -0.025280
 N   -0.591865    0.712902   -0.127399
 C    3.058268    0.495317   -0.045308
 C    3.498613   -0.724797    0.474202
 C    4.858995   -1.005290    0.517673
 C    5.781874   -0.080817    0.044693
 C    5.356586    1.135901   -0.474591
 C    3.998206    1.419377   -0.512257
 N    1.699446    0.865131   -0.096263
 O    0.682654   -1.185929    0.110897
 C   -4.261495    0.609578    0.101554
 C   -4.535177   -0.742365   -0.112962
 C   -3.476249   -1.619340   -0.327482
 C   -2.160104   -1.180523   -0.329960
Cl   -6.153007   -1.354795   -0.119808
 H   -2.759220    2.117331    0.264536
 H   -0.560013    1.719973   -0.068228
 H    2.778433   -1.446497    0.835345
 H    5.202326   -1.953796    0.920224
 H    6.081923    1.855046   -0.842570
 H    3.666477    2.372396   -0.916835
 H    1.538238    1.821201   -0.377143
 H   -3.692525   -2.670345   -0.492920
 H   -1.347360   -1.874704   -0.491320
