28 
5vl2_ligand_xtb.xyz
 C   -2.926977    1.057998    0.017491
 C   -1.878867    0.139228   -0.025751
Cl   -5.511957    1.787051    0.078370
Cl    7.473170   -0.376555    0.040747
 C    0.608169   -0.058814   -0.024412
 N   -0.581200    0.645702   -0.034920
 C    3.048843    0.459398   -0.023099
 C    3.513323   -0.849819    0.068397
 C    4.871738   -1.103417    0.087603
 C    5.774596   -0.055090    0.015950
 C    5.326501    1.253131   -0.075197
 C    3.969171    1.504709   -0.093986
 N    1.690725    0.790219   -0.041227
 O    0.682074   -1.263501   -0.003176
 C   -4.240755    0.625423    0.023025
 C   -4.527523   -0.735425   -0.015755
 C   -3.483858   -1.647757   -0.057756
 C   -2.170113   -1.222887   -0.062877
Cl   -6.161134   -1.285235   -0.012220
 H   -2.726524    2.118539    0.047753
 H   -0.533603    1.654693   -0.025884
 H    2.809480   -1.662471    0.122879
 H    5.228821   -2.118380    0.159271
 H    6.033112    2.065903   -0.130595
 H    3.620316    2.525559   -0.164604
 H    1.513363    1.783695   -0.088197
 H   -3.708352   -2.701861   -0.087464
 H   -1.366715   -1.938595   -0.093768
