28 
5vm0_ligand_dft.xyz
 C   -2.944615    1.054166    0.000061
 C   -1.891863    0.135833   -0.000398
Cl   -5.523151    1.823170    0.000806
Cl    7.516617   -0.390159    0.000640
 C    0.605466   -0.032215   -0.000478
 N   -0.591721    0.665632   -0.000561
 C    3.061589    0.458286   -0.000307
 C    3.987606    1.507156   -0.000876
 C    5.351610    1.254999   -0.000572
 C    5.799697   -0.060257    0.000259
 C    4.892431   -1.111350    0.000780
 C    3.524605   -0.860795    0.000512
 N    1.698896    0.811608   -0.000558
 O    0.680383   -1.246882   -0.000438
 C   -4.264999    0.623898    0.000220
 C   -4.556314   -0.740072   -0.000072
 C   -3.503543   -1.649613   -0.000569
 C   -2.180248   -1.232672   -0.000737
Cl   -6.192132   -1.326268    0.000158
 H   -2.748545    2.122368    0.000290
 H   -0.551346    1.673417    0.000191
 H    3.642884    2.538787   -0.001577
 H    6.060133    2.075804   -0.001010
 H    5.249556   -2.135395    0.001386
 H    2.820303   -1.679775    0.000863
 H    1.528393    1.805728   -0.001070
 H   -3.728459   -2.710510   -0.000802
 H   -1.377402   -1.954840   -0.001118
