28 
5vm6_ligand_dft.xyz
 C    2.417019    0.393980   -0.011142
 C    1.963811   -0.925845    0.004466
Cl    4.297306    2.313216   -0.029846
Cl   -7.294934    0.828258    0.002915
 C   -0.491202   -0.432789    0.004988
 N    0.605390   -1.280004    0.001874
 C   -2.990023   -0.597712   -0.002318
 C   -4.045468   -1.515226   -0.043812
 C   -5.364540   -1.086068   -0.042246
 C   -5.636047    0.275938    0.000916
 C   -4.598843    1.198145    0.042404
 C   -3.275791    0.770064    0.041372
 N   -1.685384   -1.126722   -0.003928
 O   -0.406960    0.781093    0.014893
 C    3.784667    0.652936   -0.010112
 C    4.715025   -0.386083    0.006138
 C    4.254257   -1.699256    0.021601
 C    2.896763   -1.968946    0.020855
Cl    6.427291   -0.090005    0.007824
 H    1.712323    1.212411   -0.022610
 H    0.435542   -2.274051    0.015147
 H   -3.838996   -2.582618   -0.078002
 H   -6.174713   -1.805996   -0.074729
 H   -4.818381    2.259674    0.075954
 H   -2.470014    1.488837    0.072761
 H   -1.646149   -2.134088   -0.034707
 H    4.971364   -2.512370    0.034420
 H    2.562618   -3.003264    0.033171
