28 
5vm6_ligand_ani.xyz
 C    2.416502    0.385741    0.179769
 C    1.965202   -0.932995    0.138247
Cl    4.285379    2.303422    0.106950
Cl   -7.259626    0.840677   -0.235938
 C   -0.485759   -0.440025    0.175337
 N    0.609142   -1.282070    0.265471
 C   -2.985569   -0.603803    0.134617
 C   -4.037369   -1.517844    0.012505
 C   -5.350794   -1.084464   -0.103773
 C   -5.618936    0.278920   -0.091531
 C   -4.584735    1.197638    0.035163
 C   -3.268927    0.764691    0.148262
 N   -1.683568   -1.129036    0.252599
 O   -0.404651    0.768082    0.047679
 C    3.775027    0.650092    0.052456
 C    4.698177   -0.382545   -0.117853
 C    4.239402   -1.696216   -0.153260
 C    2.888047   -1.970763   -0.022038
Cl    6.392005   -0.073588   -0.286074
 H    1.718906    1.201387    0.306228
 H    0.439859   -2.273451    0.342484
 H   -3.829057   -2.584878    0.002291
 H   -6.162069   -1.799217   -0.202125
 H   -4.804853    2.261168    0.042981
 H   -2.462867    1.478401    0.243038
 H   -1.647517   -2.134789    0.322391
 H    4.953964   -2.502423   -0.283979
 H    2.548311   -3.002375   -0.052581
