56 
5vo6_ligand_ani.xyz
 C    3.832217   -0.629362    1.369167
 C    3.870369   -1.509262    0.101054
 C    2.455884   -2.173176    0.077755
 C    1.525107   -1.021133    0.546611
 C    2.338990   -0.313858    1.652448
 C    2.074635   -2.733175   -1.290625
 C    2.373598   -3.308932    1.106226
 C   -5.488144    0.094243    0.772145
 C   -6.684594   -0.612559    0.782111
 C    2.488045    2.568145   -0.414093
 C   -4.576251   -1.475013   -0.804295
 C   -0.926128    0.920792   -0.207530
 N   -1.657506    2.080107    0.038267
 N   -1.164626    3.329440    0.140707
 C    0.130593    3.410494    0.011214
 C    1.026877    2.318897   -0.230536
 C    0.478442    1.049279   -0.336886
 C   -1.851595   -0.122341   -0.253072
 C   -3.142429    0.414155   -0.034163
 C   -2.979049    1.773636    0.144762
 N    1.211855   -0.117204   -0.588223
 N    3.002576    3.610990    0.302322
 O    3.196442    1.894764   -1.150291
 C   -4.416868   -0.328422   -0.020232
 N    4.018720   -0.604919   -1.099064
 C   -6.832708   -1.750451   -0.005891
 C   -5.773467   -2.178677   -0.801321
 C    5.037694   -2.491042    0.109486
 H    4.426199    0.277725    1.210496
 H    4.285228   -1.161766    2.212124
 H    0.588894   -1.434197    0.954068
 H    2.043525   -0.690035    2.636977
 H    2.144902    0.761328    1.644880
 H    2.108098   -1.982523   -2.084433
 H    2.741223   -3.554652   -1.579322
 H    1.056420   -3.143490   -1.264691
 H    2.683613   -3.004310    2.111859
 H    1.343680   -3.676242    1.174456
 H    2.997466   -4.157292    0.806535
 H   -5.373938    0.977305    1.396573
 H   -7.506187   -0.272603    1.407031
 H   -3.753277   -1.808478   -1.432830
 H    0.506901    4.429178    0.074792
 H   -1.623364   -1.169670   -0.400536
 H   -3.689628    2.572037    0.306022
 H    0.729558   -0.645549   -1.309929
 H    2.507082    3.995590    1.090411
 H    4.003629    3.726972    0.270518
 H    4.171652   -1.153415   -1.962507
 H    3.184527   -0.001810   -1.220251
 H    4.815680    0.043582   -0.977004
 H   -7.769478   -2.301382   -0.000157
 H   -5.878834   -3.065595   -1.420667
 H    5.990068   -1.947053    0.084921
 H    5.037513   -3.099603    1.018358
 H    5.012871   -3.174502   -0.749444
