54 
5vom_ligand_ani.xyz
 C    8.131986   -0.334210    1.602961
 N    7.008515   -0.738540    0.783226
 C    6.007101    0.145378    0.500808
 O    6.059851    1.323044    0.818802
 C    4.820546   -0.426567   -0.223847
 C    3.608848    0.245861   -0.098014
 C    4.900021   -1.568089   -1.023418
 C    3.757283   -2.051870   -1.651569
 C    2.538472   -1.406984   -1.475593
 C    2.450550   -0.242195   -0.704179
 C    1.147894    0.454802   -0.545040
 C   -0.020514   -0.276310   -0.336670
 C   -1.259503    0.347793   -0.207382
 C    1.056490    1.845732   -0.644730
 C   -0.161790    2.484559   -0.498441
 C   -1.320753    1.760540   -0.208193
 N   -2.558576    2.400823    0.009782
 C   -2.745191    3.696620    0.479048
 O   -3.788104    4.290184    0.267487
 C   -1.664124    4.335058    1.326038
 C   -3.760163    1.642849   -0.349760
 C   -3.907631    1.514334   -1.860192
 C   -3.671927    0.298083    0.358072
 N   -2.452472   -0.411074   -0.054353
 C   -2.481045   -1.743985   -0.461604
 O   -1.808607   -2.167423   -1.388059
 C   -3.375471   -2.666609    0.267856
 O   -3.782075   -2.348127    1.532078
 C   -4.529601   -3.391044    1.971706
 C   -4.609458   -4.359197    1.024802
 C   -3.843945   -3.890829   -0.087918
 H    8.993429   -0.966942    1.376494
 H    8.373829    0.702084    1.363586
 H    7.910518   -0.391334    2.676183
 H    6.796534   -1.722428    0.729283
 H    3.581969    1.153846    0.500317
 H    5.853488   -2.065886   -1.186047
 H    3.814514   -2.947550   -2.264767
 H    1.638518   -1.788625   -1.953594
 H    0.045223   -1.355144   -0.264275
 H    1.949684    2.428770   -0.847298
 H   -0.209212    3.559398   -0.616940
 H   -0.997427    3.606987    1.791715
 H   -1.071543    5.024468    0.715970
 H   -2.164100    4.925970    2.094796
 H   -4.603602    2.206210    0.054367
 H   -3.077524    0.936834   -2.286202
 H   -4.846005    1.005690   -2.108145
 H   -3.914478    2.511825   -2.308476
 H   -3.652430    0.446363    1.440455
 H   -4.537948   -0.314719    0.104727
 H   -4.928462   -3.292941    2.970605
 H   -5.139220   -5.298602    1.107039
 H   -3.654999   -4.386482   -1.031293
