85 
5vpm_ligand_dft.xyz
 C   -3.628413    1.274022    2.265439
 C   -2.186908    0.603754    4.024268
 C   -1.604853    0.100719    1.713023
 C    0.888978    2.578129   -1.050078
 C    2.950577    3.743535   -0.402126
 C   -1.220738   -1.869338    0.156303
 C   -1.509481   -2.917411    1.269332
 C   -6.808620   -0.709845   -2.516202
 C   -5.314727   -0.996869   -2.715146
 C   -4.450400    0.063083   -2.075130
 C   -4.133553    1.238978   -2.757112
 C   -3.414547    2.251699   -2.129290
 C   -2.980767    2.092071   -0.817868
 C   -3.248972    0.906888   -0.128781
 C   -4.006096   -0.080760   -0.759182
 C   -2.792543    0.735757    1.286225
 F   -4.757573    1.876938    1.867731
 C   -3.359942    1.222415    3.622404
 C   -1.323895    0.054956    3.081389
 C   -0.606100   -0.558072    0.743609
 O    0.558841   -0.895821    1.517604
 C   -0.135812    0.394976   -0.370871
 C    0.399698    1.734228    0.127691
 N    1.629574    3.762398   -0.657367
 O    3.689589    2.766614   -0.539554
 O    3.386691    4.932559    0.012975
 C    4.788574    5.037953    0.272340
 C   -0.905797   -4.292044    0.951770
 C    0.589692   -4.201704    0.632268
 N    0.838744   -3.137944   -0.365512
 C   -0.363513   -2.515992   -0.941016
 C    2.060930   -2.753146   -0.803757
 O    2.177327   -1.860320   -1.659473
 C    3.289929   -3.448966   -0.243975
 C    4.551797   -2.586310   -0.007566
 C    4.396051   -1.529112    1.104264
 C    3.656483   -0.249651    0.692347
 N    3.851985    0.056052   -0.760735
 C    5.164261   -0.423169   -1.273847
 C    5.167055   -1.954857   -1.292259
 H   -1.940453    0.545427    5.079638
 H    0.041819    2.897135   -1.665455
 H    1.539150    1.983864   -1.701014
 H   -2.151147   -1.582072   -0.335334
 H   -2.586515   -3.019831    1.425334
 H   -1.096185   -2.565725    2.219723
 H   -7.056324   -0.660768   -1.450911
 H   -7.082871    0.249287   -2.966890
 H   -7.420534   -1.491583   -2.976438
 H   -5.094010   -1.056485   -3.787149
 H   -5.073398   -1.977425   -2.288032
 H   -4.471139    1.370703   -3.782096
 H   -3.202112    3.174293   -2.661615
 H   -2.434767    2.888804   -0.320126
 H   -4.273081   -0.978584   -0.204200
 H   -4.060062    1.659155    4.325489
 H   -0.407282   -0.417181    3.407695
 H    0.924954   -1.690792    1.112900
 H   -0.937955    0.554533   -1.097481
 H    0.674599   -0.110781   -0.907889
 H    1.226983    1.568041    0.827079
 H   -0.369201    2.282495    0.682726
 H    1.138488    4.620512   -0.456168
 H    4.945540    6.069701    0.581814
 H    5.361936    4.819805   -0.631050
 H    5.084035    4.352306    1.069490
 H   -1.435532   -4.769565    0.121017
 H   -1.021289   -4.960121    1.810388
 H    1.129183   -3.965393    1.557561
 H    0.964515   -5.160835    0.259598
 H   -0.045030   -1.811288   -1.702627
 H   -0.943691   -3.291347   -1.450378
 H    3.540971   -4.234510   -0.969616
 H    3.060551   -3.968215    0.689559
 H    5.279937   -3.306906    0.377610
 H    5.400614   -1.262783    1.449249
 H    3.885788   -1.958830    1.972572
 H    4.030704    0.613385    1.246833
 H    2.580015   -0.311245    0.863181
 H    3.121272   -0.459859   -1.286850
 H    3.728251    1.081989   -0.881692
 H    5.304922   -0.010891   -2.274480
 H    5.938318   -0.008560   -0.623047
 H    4.622004   -2.295948   -2.175081
 H    6.204392   -2.279651   -1.411317
