85 
5vpm_ligand_ani.xyz
 C   -3.845764    1.395741    2.008056
 C   -2.499669    0.894167    3.892233
 C   -1.765465    0.245171    1.666472
 C    1.041696    2.653046   -0.893079
 C    3.196591    3.676110   -0.390405
 C   -1.206873   -1.797160    0.245765
 C   -1.474931   -2.830218    1.374625
 C   -7.069847   -0.939373   -2.023471
 C   -5.678084   -1.083529   -2.645906
 C   -4.717838   -0.032258   -2.140088
 C   -4.317676    1.038051   -2.938186
 C   -3.481519    2.028434   -2.432423
 C   -3.027626    1.952186   -1.120607
 C   -3.368837    0.865003   -0.314881
 C   -4.247159   -0.089181   -0.824959
 C   -2.938298    0.810714    1.124215
 F   -4.973299    1.937742    1.505571
 C   -3.657284    1.454044    3.374032
 C   -1.571604    0.298041    3.051518
 C   -0.675497   -0.438401    0.819743
 O    0.421617   -0.712805    1.687684
 C   -0.128974    0.486420   -0.285956
 C    0.415488    1.822166    0.230819
 N    1.845734    3.763643   -0.432405
 O    3.856507    2.732110   -0.797899
 O    3.745063    4.779031    0.157645
 C    5.171131    4.750817    0.205234
 C   -0.847288   -4.203174    1.098902
 C    0.650498   -4.091140    0.813739
 N    0.902364   -3.041113   -0.182463
 C   -0.289108   -2.449467   -0.803792
 C    2.140415   -2.755331   -0.691887
 O    2.277175   -1.919678   -1.588039
 C    3.343002   -3.473015   -0.082278
 C    4.623154   -2.626111    0.112884
 C    4.438983   -1.437300    1.077560
 C    3.792413   -0.189610    0.457511
 N    4.140487   -0.015116   -0.975379
 C    5.424138   -0.657801   -1.321914
 C    5.288101   -2.180646   -1.213839
 H   -2.319051    0.919569    4.963762
 H    0.263894    3.023454   -1.575460
 H    1.724624    2.028757   -1.476986
 H   -2.138659   -1.564663   -0.276138
 H   -2.553131   -2.939291    1.527726
 H   -1.069065   -2.446809    2.317121
 H   -7.010234   -0.979255   -0.929754
 H   -7.519720    0.020591   -2.295610
 H   -7.738980   -1.739540   -2.356992
 H   -5.748532   -1.026021   -3.738353
 H   -5.277081   -2.078758   -2.412706
 H   -4.672087    1.097625   -3.965475
 H   -3.185550    2.862859   -3.061127
 H   -2.371572    2.732511   -0.734089
 H   -4.574222   -0.907085   -0.180727
 H   -4.407349    1.927366    3.998330
 H   -0.671009   -0.137290    3.469803
 H    0.920543   -1.430872    1.265092
 H   -0.887626    0.634440   -1.060035
 H    0.711883   -0.030827   -0.772520
 H    1.178378    1.617454    0.993348
 H   -0.377880    2.391671    0.733817
 H    1.419104    4.542177    0.044969
 H    5.470923    5.704144    0.639333
 H    5.585839    4.634337   -0.798716
 H    5.516192    3.918392    0.823777
 H   -1.349677   -4.687774    0.253356
 H   -0.991909   -4.864125    1.960704
 H    1.177011   -3.854735    1.751809
 H    1.039918   -5.056018    0.460391
 H    0.040705   -1.753479   -1.571985
 H   -0.852423   -3.237328   -1.323197
 H    3.575031   -4.326095   -0.736850
 H    3.078732   -3.896713    0.888720
 H    5.319564   -3.308881    0.614291
 H    5.427370   -1.160460    1.467277
 H    3.851245   -1.749100    1.950425
 H    4.103897    0.705720    1.006518
 H    2.702308   -0.238850    0.539380
 H    3.405773   -0.488786   -1.531587
 H    4.129997    0.989128   -1.201241
 H    5.725280   -0.370015   -2.332489
 H    6.204233   -0.301718   -0.640092
 H    4.699285   -2.545099   -2.062726
 H    6.283124   -2.629841   -1.306444
