22 
5vqe_ligand_xtb.xyz
 C   -0.438673   -1.767185   -0.159418
 C   -1.566069   -0.835507    0.290488
 C   -1.309266    0.583510   -0.218248
 C    0.097778    1.028489    0.212836
 C    1.131269   -0.016063   -0.227354
 C    2.531138    0.327504    0.291798
 O   -2.225873    1.514839    0.307086
 O    0.428285    2.261053   -0.361982
 O    0.803183   -1.296980    0.287244
 O    3.490669   -0.579846   -0.170455
 F   -2.768884   -1.285537   -0.222668
 H   -0.568936   -2.762115    0.270689
 H   -0.460825   -1.842124   -1.257437
 H   -1.672360   -0.835019    1.381760
 H   -1.361907    0.579252   -1.319610
 H    0.106134    1.099572    1.313003
 H    1.152659   -0.048794   -1.327807
 H    2.501424    0.340976    1.390270
 H    2.815571    1.313904   -0.075727
 H   -3.120644    1.207268    0.119342
 H   -0.303776    2.866152   -0.185062
 H    3.185431   -1.466252    0.058834
