60 
5vqq_ligand_ani.xyz
 C    0.153380   -2.209048   -1.864643
 N    4.797978    0.333784    1.092756
 C    2.472748   -3.514579   -1.036858
 C    4.782328    2.920276   -0.032926
 C    3.688226    2.428350    0.793127
 C    3.740360    1.185605    1.301217
 C   -0.549364    0.000020   -0.103114
 C   -0.939480    1.260849   -0.496360
 C   -2.281575    1.667464   -0.197103
 C   -3.156914    0.804165    0.527119
 C   -2.684820   -0.494877    0.902076
 C   -1.397558   -0.871232    0.609656
 C   -2.778156    2.930434   -0.612986
 C    2.141787   -2.282803   -0.487816
 C   -4.060304    3.329698   -0.323134
 C   -4.920116    2.485800    0.414861
 C   -4.469337    1.259600    0.828327
 C   -4.528638    4.618728   -0.768240
 C    0.017927    2.176640   -1.213306
 C   -4.382140   -2.244791    0.788882
 C   -4.326206   -2.020490   -0.719960
 C   -3.407653   -1.686147    2.949785
 C    0.967882   -1.633129   -0.901396
 C    0.489864   -3.445718   -2.413293
 C    1.642054   -4.094972   -1.997721
 C    4.183457   -2.044736    0.719535
 C    4.794183   -1.013965    1.655974
 C    5.871794    0.687717    0.277867
 F   -5.219011   -2.858234   -1.330911
 N    5.798256    1.972715   -0.216405
 N   -3.563264   -1.421776    1.527836
 N   -4.906580    5.654222   -1.124892
 O    0.748160   -0.388806   -0.366459
 O    2.854252   -1.628249    0.459644
 O    6.794299   -0.063430    0.030236
 O    4.866282    4.020136   -0.540756
 O   -5.097050   -3.089240    1.285614
 H   -0.747463   -1.687746   -2.178278
 H    3.377595   -4.029573   -0.727020
 H    2.853307    3.088647    0.985607
 H    2.942557    0.758077    1.902213
 H   -1.027401   -1.853489    0.892854
 H   -2.129011    3.598117   -1.170865
 H   -5.928056    2.813356    0.646435
 H   -5.125482    0.613618    1.401677
 H    0.212334    3.092414   -0.638539
 H    0.977402    1.674249   -1.369874
 H   -0.365310    2.477219   -2.196308
 H   -3.315256   -2.233802   -1.092829
 H   -4.569007   -0.980628   -0.971837
 H   -2.375688   -1.981631    3.179851
 H   -3.651255   -0.792801    3.537340
 H   -4.091604   -2.496271    3.207498
 H   -0.153721   -3.897977   -3.162522
 H    1.911491   -5.059045   -2.421288
 H    4.189042   -3.032513    1.200115
 H    4.762287   -2.102659   -0.212501
 H    4.224575   -0.982088    2.588227
 H    5.826683   -1.283646    1.876514
 H    6.578423    2.253227   -0.796987
