61 
5vqr_ligand_xtb.xyz
 N   -4.884520    0.447084   -1.028327
 C   -2.164780   -2.299495    0.237343
 N   -6.262942    1.760261    0.295663
 N    3.814776   -1.661812   -1.053284
 C   -0.226821   -2.448362    1.674240
 N    4.752396    5.756364    0.264847
 C   -1.814762   -4.239859    1.612350
 C   -4.126686   -1.889127   -1.069732
 C   -6.158097    0.669815   -0.524407
 C   -2.575507   -3.545662    0.683392
 C   -5.251620    2.633185    0.706164
 C   -3.959212    2.288796    0.151322
 C   -3.830611    1.233201   -0.671079
 C    0.654109   -0.128958    0.122663
 C    1.004647    1.192560    0.328382
 C    2.336632    1.596226    0.052829
 C    3.297239    0.652834   -0.409039
 C    2.895108   -0.699019   -0.581006
 C    1.597233   -1.065025   -0.337069
 C    2.749440    2.933268    0.223639
 C    4.040836    3.318131   -0.059967
 C    4.982001    2.382583   -0.540856
 C    4.608702    1.081698   -0.707103
 C    4.431719    4.665468    0.119853
 C   -0.015957    2.169975    0.827680
 C    4.935991   -2.043175   -0.369618
 C    5.032947   -1.545884    1.025068
 C    3.583681   -2.186674   -2.383088
 C    6.171523   -1.636954    1.695148
 C   -0.970735   -1.750218    0.738204
 C   -0.647099   -3.695052    2.108649
 C   -4.689545   -0.713701   -1.871311
 O   -0.654351   -0.483253    0.313007
 O   -2.820207   -1.530946   -0.678480
 O   -7.097163   -0.041089   -0.798436
 O   -5.503918    3.553026    1.448298
 O    5.772918   -2.770531   -0.870785
 H   -7.191323    1.945063    0.660557
 H    0.676362   -2.006406    2.068648
 H   -2.146338   -5.210519    1.946633
 H   -4.113404   -2.787934   -1.700400
 H   -4.759696   -2.075469   -0.192923
 H   -3.483387   -3.987318    0.304613
 H   -3.119906    2.905720    0.418691
 H   -2.877298    0.941315   -1.085912
 H    1.287763   -2.088112   -0.491863
 H    2.048364    3.672324    0.577611
 H    5.983806    2.709987   -0.773024
 H    5.323161    0.363608   -1.080002
 H   -0.941107    1.648831    1.056041
 H    0.335765    2.668432    1.729643
 H   -0.221208    2.930043    0.074505
 H    4.138890   -1.133035    1.469121
 H    2.664106   -2.773304   -2.416198
 H    3.513405   -1.371034   -3.105588
 H    4.429499   -2.825440   -2.633329
 H    7.043760   -2.057230    1.221466
 H    6.271582   -1.304807    2.714118
 H   -0.060838   -4.230698    2.838372
 H   -3.997271   -0.459157   -2.676092
 H   -5.663143   -0.989252   -2.281721
