58 
5vqs_ligand_ani.xyz
 C   -3.029832   -3.103802    0.937689
 C   -2.249535   -1.954136    1.019521
 C   -1.486601   -2.625266    3.212578
 O    2.333764   -1.361263   -2.558088
 C   -2.652190   -1.239345   -1.230148
 C   -3.860848    1.620873   -1.858108
 C   -2.092855    3.149269   -0.253310
 C    0.438759   -0.435779    1.588177
 C    1.009135    0.818627    1.603344
 C    2.307295    0.974981    1.030681
 C    2.913359   -0.103488    0.322754
 C    2.206508   -1.334990    0.216311
 C    3.029173    2.191441    1.153466
 C    4.889250    1.265701   -0.085647
 C    4.222499    0.078244   -0.214146
 C    4.976448    3.594818    0.733087
 C    0.261222    1.963248    2.236467
 C    2.628754   -2.373044   -1.949627
 C    2.952346   -3.661612   -2.629221
 C    2.917116   -3.743930   -3.955478
 C   -1.478180   -1.719108    2.169368
 C   -2.267094   -3.779153    3.130560
 C   -3.035341   -4.011502    1.997788
 O   -0.746553   -0.561210    2.281804
 O   -2.137138   -1.003401    0.066354
 C   -2.148382   -0.087538   -2.084117
 N   -2.562798    1.212358   -1.567568
 N   -4.196623    2.848768   -1.329033
 C   -3.415355    3.692577   -0.530602
 C   -1.735209    1.956044   -0.757688
 C    1.021466   -1.513768    0.891754
 C    4.280831    2.338624    0.605216
 O   -4.632021    0.960502   -2.527160
 O   -3.855500    4.753768   -0.138026
 N    2.715782   -2.406156   -0.568092
 N    5.535749    4.604440    0.833421
 H   -3.627578   -3.299738    0.051408
 H   -0.870530   -2.417558    4.082116
 H   -3.749129   -1.261086   -1.218792
 H   -2.279898   -2.192964   -1.628874
 H   -1.432623    3.736655    0.372994
 H    2.594169    3.016129    1.709794
 H    5.882693    1.392067   -0.504274
 H    4.692055   -0.750924   -0.733054
 H    0.407147    2.897036    1.678876
 H   -0.810616    1.744152    2.272270
 H    0.585467    2.141448    3.271525
 H    3.219453   -4.518881   -2.013421
 H    2.650274   -2.872438   -4.548669
 H    3.148434   -4.668518   -4.476562
 H   -2.268752   -4.488727    3.953472
 H   -3.646216   -4.907703    1.924665
 H   -2.519289   -0.187024   -3.104852
 H   -1.055196   -0.090410   -2.094372
 H   -5.133482    3.165540   -1.544160
 H   -0.774463    1.483821   -0.561473
 H    0.518676   -2.475758    0.856400
 H    2.707776   -3.316054   -0.129205
