60 
5vqt_ligand_dft.xyz
 C   -3.406489   -2.986612   -0.076057
 C   -3.889558   -2.461898    1.277815
 C   -3.986854   -0.766082    2.990494
 N   -4.066411    5.568555   -1.821314
 C    0.564203    1.784090   -1.099539
 C   -4.186732    1.300823    0.416139
 C   -4.496716    2.504986   -0.154074
 N   -3.518449   -1.204361    1.677064
 C   -3.796292    4.545754   -1.347793
 C   -3.472762    3.275491   -0.758913
 C    2.831131   -3.398861   -1.368873
 C    2.495710   -2.367419   -0.501918
 C    4.692252   -1.819423    0.240518
 C    1.925651   -3.818220   -2.344246
 C    0.685833   -3.204537   -2.448387
 C    0.342479   -2.159447   -1.589334
 C    1.245809   -1.739254   -0.620850
 C    5.241005   -0.801441    1.226630
 C    5.193338    1.372663    0.130673
 C    3.315554    2.966673    0.586360
 C    2.787836    1.979434    1.509950
 C    3.432988    0.811653    1.684280
 C   -0.239433   -0.155152    0.275003
 O    3.304151   -1.920170    0.499024
 O    1.026185   -0.695900    0.241824
 N    4.618160    0.506142    1.056413
 C   -0.496789    1.050044   -0.328128
 N    4.515786    2.564196   -0.020361
 C   -1.832303    1.563851   -0.225500
 C   -2.175175    2.811843   -0.799344
 O   -4.586317   -3.174831    1.977859
 C   -2.856839    0.812529    0.414957
 C   -2.516892   -0.435014    1.020336
 C   -1.226880   -0.881182    0.976564
 O    2.812397    4.038058    0.302221
 O    6.202742    1.097805   -0.489581
Cl   -3.866726   -1.954724   -1.472434
 H   -3.883370   -3.954751   -0.213645
 H   -2.321707   -3.102763   -0.109120
 H   -3.467808   -1.305746    3.789704
 H   -3.793261    0.302750    3.091672
 H   -5.056997   -0.959509    3.084236
 H    0.787196    2.760975   -0.656590
 H    1.490762    1.209086   -1.116000
 H    0.246595    1.949772   -2.134807
 H   -4.967465    0.693210    0.860491
 H   -5.516200    2.874528   -0.155582
 H    3.798486   -3.882402   -1.276191
 H    5.195502   -2.784001    0.390824
 H    4.869620   -1.485012   -0.788575
 H    2.197147   -4.626431   -3.015289
 H   -0.023637   -3.522523   -3.205331
 H   -0.615687   -1.660001   -1.693177
 H    6.315781   -0.686560    1.081484
 H    5.054267   -1.135426    2.250533
 H    1.855010    2.189655    2.013953
 H    3.045617    0.030154    2.325255
 H    4.918326    3.207148   -0.690589
 H   -1.411951    3.415305   -1.276864
 H   -0.943193   -1.810320    1.461023
