63 
5vqv_ligand_ani.xyz
 N    4.893351    0.232576    1.044198
 C    2.109495   -2.265076   -0.476872
 N    5.914811    1.881460   -0.236909
 N   -3.714057   -1.350313    1.551588
 C    0.068613   -2.044411   -1.757707
 N   -4.789095    5.711891   -1.260899
 C    1.545812   -3.904202   -2.150764
 C    4.204439   -2.123941    0.658258
 C    5.967895    0.584794    0.228946
 C    2.414986   -3.431011   -1.164752
 C    0.918791   -1.578736   -0.766284
 C    0.382376   -3.213452   -2.450945
 O    0.718237   -0.412588   -0.072153
 O    2.859626   -1.704479    0.501620
 C    4.873250   -1.123434    1.587840
 C    4.916010    2.841530   -0.028052
 C    3.817627    2.350554    0.793023
 C    3.851118    1.097198    1.275968
 C   -0.582136    0.017777    0.104007
 C   -0.934851    1.262943   -0.360720
 C   -2.283828    1.699144   -0.135277
 C   -3.211669    0.862116    0.553412
 C   -2.783638   -0.436555    0.981631
 C   -1.481909   -0.825805    0.786050
 C   -2.734465    2.965050   -0.592155
 C   -4.025342    3.386043   -0.383844
 C   -4.942246    2.562977    0.307661
 C   -4.535276    1.337047    0.762934
 O    6.874655   -0.177377   -0.041994
 O    5.015814    3.950524   -0.512570
 C   -4.447503    4.675747   -0.871037
 C    0.065798    2.128399   -1.082199
 C   -4.427312   -2.234962    0.765783
 O   -5.144839   -3.089427    1.255013
 C   -4.277638   -2.081664   -0.741963
 C   -3.693894   -1.541875    2.993510
 C   -5.163185   -3.059231   -1.501761
 H    6.696397    2.160486   -0.816351
 H   -0.840177   -1.489872   -1.977507
 H    1.795290   -4.816884   -2.685755
 H    4.722469   -2.144175   -0.310351
 H    4.241812   -3.128633    1.101089
 H    3.326431   -3.978520   -0.941646
 H   -0.288834   -3.580982   -3.222297
 H    4.336816   -1.093336    2.539635
 H    5.906256   -1.420312    1.766043
 H    2.996414    3.022076    1.004459
 H    3.049433    0.670667    1.872002
 H   -1.135700   -1.805876    1.107502
 H   -2.042360    3.617689   -1.115319
 H   -5.958421    2.906681    0.470872
 H   -5.234574    0.704598    1.298533
 H    0.322120    3.028140   -0.505919
 H    0.993672    1.571877   -1.248129
 H   -0.310079    2.455126   -2.058949
 H   -3.220788   -2.233583   -0.999565
 H   -4.502950   -1.043848   -1.016555
 H   -2.686818   -1.816058    3.336718
 H   -3.990854   -0.620141    3.510221
 H   -4.395597   -2.342234    3.234279
 H   -4.916450   -4.092184   -1.240072
 H   -6.217001   -2.902588   -1.254383
 H   -5.037442   -2.932409   -2.581882
