63 
5vqv_ligand_dft.xyz
 N    3.873656    0.809045    1.442013
 C    2.914807   -2.370713   -0.579916
 N    3.011991    2.822379    0.662505
 N   -3.602058   -0.799783    1.672487
 C    0.792738   -2.789066   -1.665106
 N   -2.662212    4.938771   -3.276987
 C    2.845130   -3.525300   -2.695490
 C    4.783147   -1.183133    0.307809
 C    4.080215    1.951317    0.672991
 C    3.573904   -3.003844   -1.626747
 C    1.517692   -2.259667   -0.607744
 C    1.460409   -3.420471   -2.713780
 O    0.939166   -1.614369    0.456908
 O    3.537645   -1.827273    0.501545
 C    4.934427   -0.191968    1.450663
 C    1.743836    2.655501    1.246470
 C    1.636791    1.434028    2.024990
 C    2.670272    0.573401    2.069244
 C   -0.174224   -0.836082    0.234118
 C   -0.140902    0.271839   -0.584905
 C   -1.343570    1.038624   -0.706521
 C   -2.509186    0.686603    0.032689
 C   -2.466156   -0.452912    0.887450
 C   -1.318446   -1.192867    0.976113
 C   -1.416044    2.167422   -1.560936
 C   -2.576694    2.899666   -1.672606
 C   -3.732763    2.545592   -0.931418
 C   -3.690155    1.461640   -0.100394
 O    5.112018    2.155523    0.061902
 O    0.869131    3.478088    1.056499
 C   -2.619934    4.030574   -2.558042
 C    1.117487    0.664197   -1.311433
 C   -4.576386   -1.678834    1.243893
 O   -5.530458   -1.966329    1.946106
 C   -4.389861   -2.257949   -0.153265
 C   -3.696786   -0.196672    2.994183
 C   -5.567141   -3.131693   -0.566278
 H    3.141860    3.655507    0.102409
 H   -0.287890   -2.686219   -1.674186
 H    3.368076   -4.014346   -3.510804
 H    4.800818   -0.657208   -0.654543
 H    5.610684   -1.904479    0.332677
 H    4.655979   -3.086685   -1.609572
 H    0.890716   -3.827461   -3.542698
 H    4.896561   -0.718977    2.407448
 H    5.890620    0.326000    1.368185
 H    0.698447    1.216507    2.515073
 H    2.608721   -0.374206    2.588969
 H   -1.272079   -2.064701    1.620554
 H   -0.555039    2.463566   -2.146916
 H   -4.636354    3.136344   -1.033378
 H   -4.568389    1.174016    0.468240
 H    1.231532    1.749837   -1.343570
 H    1.994512    0.258071   -0.803898
 H    1.124220    0.287087   -2.340674
 H   -3.455601   -2.832842   -0.172219
 H   -4.246155   -1.436291   -0.865661
 H   -2.880527   -0.543565    3.637819
 H   -3.643599    0.894735    2.917138
 H   -4.652074   -0.491320    3.427866
 H   -5.702181   -3.959752    0.133614
 H   -6.496220   -2.556052   -0.574335
 H   -5.401931   -3.540959   -1.567526
