60 
5vqx_ligand_ani.xyz
 C    3.530060   -3.196534    0.806857
 C    4.016121   -2.927018   -0.604973
 C    4.313084   -1.442458   -2.477273
 N    5.219040    5.706414    0.658410
 C    0.223165    2.296148    0.962183
 C    4.879402    1.015959   -0.425966
 C    5.318059    2.292003   -0.196182
 N    3.886826   -1.644604   -1.096540
 C    4.853091    4.622364    0.476463
 C    4.401327    3.272065    0.248304
 C   -2.222592   -3.525510    0.851816
 C   -1.849872   -2.236906    0.492384
 C   -3.759592   -1.875223   -0.888639
 C   -1.433671   -4.256943    1.742755
 C   -0.278874   -3.701510    2.271812
 C    0.097248   -2.407542    1.914425
 C   -0.681784   -1.677109    1.029509
 C   -4.273001   -0.769740   -1.796422
 C   -5.849429    0.659217   -0.602344
 C   -5.128494    2.914361    0.205190
 C   -3.796896    2.593359   -0.291168
 C   -3.569522    1.414225   -0.892547
 C    0.871359   -0.034191    0.335799
 O   -2.519853   -1.433804   -0.367390
 O   -0.414221   -0.380532    0.681688
 N   -4.554910    0.474198   -1.086350
 C    1.238064    1.281426    0.502251
 N   -6.051818    1.880941    0.004250
 C    2.603905    1.625744    0.244846
 C    3.086832    2.941764    0.470931
 O    4.529318   -3.799341   -1.283725
 C    3.517933    0.646666   -0.240557
 C    3.032512   -0.675380   -0.509070
 C    1.726722   -0.995726   -0.238901
 O   -5.464512    3.946932    0.748096
 O   -6.724893   -0.176161   -0.710700
 H    2.460317   -3.434406    0.805225
 H    4.069154   -4.065348    1.185716
 H    3.685359   -2.340235    1.468012
 H    3.682333   -2.008948   -3.173113
 H    4.245433   -0.378779   -2.718804
 H    5.343546   -1.786519   -2.592808
 H    0.300891    3.232398    0.397921
 H   -0.793063    1.909429    0.827843
 H    0.338515    2.534280    2.028405
 H    5.584998    0.256379   -0.746482
 H    6.357842    2.558587   -0.353934
 H   -3.126795   -3.969966    0.446291
 H   -3.624692   -2.797645   -1.470075
 H   -4.473968   -2.070861   -0.077347
 H   -1.732572   -5.265038    2.016472
 H    0.341944   -4.275858    2.954031
 H    1.003202   -1.963046    2.318969
 H   -5.199450   -1.088269   -2.273369
 H   -3.525139   -0.556507   -2.564866
 H   -3.021724    3.336970   -0.163243
 H   -2.594373    1.112438   -1.265149
 H   -6.991365    2.039196    0.345703
 H    2.405254    3.700761    0.842993
 H    1.332729   -1.975476   -0.489436
