63 
5vqy_ligand_ani.xyz
 N    4.823888    0.022194    1.045615
 C    2.120662   -2.435508   -0.721634
 N    5.455589    2.067423    0.136592
 N   -4.061810   -0.805186    1.762393
 C   -0.148683   -2.315361   -1.551019
 N   -3.309574    5.558849   -2.461253
 C    1.507255   -3.614075   -2.728285
 C    4.344100   -2.230180    0.117332
 C    5.724082    0.718763    0.240816
 C    2.471026   -3.257578   -1.781908
 C    0.798541   -1.973593   -0.598140
 C    0.209655   -3.142534   -2.616330
 O    0.543274   -1.216097    0.518969
 O    2.949926   -2.017509    0.263950
 C    5.032168   -1.415895    1.200645
 C    4.389978    2.787337    0.688739
 C    3.490003    1.956060    1.477932
 C    3.733464    0.640279    1.608155
 C   -0.597374   -0.435057    0.486458
 C   -0.610965    0.748731   -0.215382
 C   -1.850525    1.472855   -0.265133
 C   -2.993206    1.008278    0.453479
 C   -2.906764   -0.237357    1.156081
 C   -1.713439   -0.916750    1.192339
 C   -1.979742    2.663829   -1.026302
 C   -3.153077    3.378720   -1.052597
 C   -4.271804    2.940571   -0.309635
 C   -4.183506    1.785849    0.421655
 O    6.666438    0.190060   -0.315428
 O    4.282062    3.980802    0.491772
 C   -3.239026    4.587733   -1.833413
 C    0.628960    1.252219   -0.913087
 C   -4.913681   -1.637241    1.060282
 O   -5.839885   -2.209634    1.607205
 C   -4.644360   -1.799808   -0.430319
 C   -4.173282   -0.742875    3.211329
 C   -5.693344   -2.674065   -1.103418
 H    6.104831    2.590275   -0.437386
 H   -1.161720   -1.931674   -1.470441
 H    1.788114   -4.259365   -3.556992
 H    4.685419   -1.901712   -0.873575
 H    4.581196   -3.295925    0.239048
 H    3.487042   -3.629580   -1.879341
 H   -0.534806   -3.415366   -3.359075
 H    4.645589   -1.708367    2.180378
 H    6.106452   -1.595078    1.168742
 H    2.625697    2.423009    1.930448
 H    3.076112   -0.032085    2.151042
 H   -1.618436   -1.858368    1.726786
 H   -1.132279    3.019319   -1.604912
 H   -5.190433    3.517705   -0.327321
 H   -5.040519    1.446159    0.992474
 H    0.822814    2.305711   -0.676096
 H    1.506978    0.676105   -0.601838
 H    0.555787    1.159335   -2.005243
 H   -3.642357   -2.232317   -0.554487
 H   -4.598714   -0.806936   -0.894219
 H   -3.276151   -1.157691    3.691034
 H   -4.288726    0.296210    3.545564
 H   -5.049291   -1.323772    3.504833
 H   -5.724141   -3.667211   -0.646289
 H   -6.690278   -2.235992   -1.000451
 H   -5.472021   -2.786408   -2.169717
