60 
5vqz_ligand_ani.xyz
 C    4.458752   -2.276261    0.991876
 C    4.637627   -2.519401   -0.491560
 C    3.922861   -1.954005   -2.760540
 N    5.227240    5.454340    1.212567
 C    0.182548    2.173777    0.757632
 C    4.856290    1.006479   -0.631866
 C    5.300160    2.232767   -0.212747
 N    3.937462   -1.676540   -1.333074
 C    4.856535    4.417583    0.851904
 C    4.395794    3.126965    0.402936
 C   -2.359286   -3.396172    1.248946
 C   -1.987818   -2.243106    0.571525
 C   -4.064221   -2.031702   -0.575314
 C   -1.507909   -3.942377    2.212247
 C   -0.294978   -3.336830    2.498712
 C    0.085660   -2.182825    1.814577
 C   -0.748335   -1.643738    0.847264
 C   -4.700662   -1.052756   -1.547833
 C   -5.983825    0.645060   -0.350948
 C   -5.037840    2.941205   -0.047893
 C   -3.833269    2.461559   -0.712868
 C   -3.766443    1.192189   -1.146999
 C    0.828930   -0.114357   -0.038626
 O   -2.725697   -1.612348   -0.373842
 O   -0.485979   -0.481195    0.167436
 N   -4.805974    0.302515   -1.014419
 C    1.200858    1.172471    0.274694
 N   -6.023496    1.954820    0.078862
 C    2.585000    1.518997    0.128753
 C    3.077104    2.777545    0.563665
 O    5.354166   -3.404409   -0.925160
 C    3.504880    0.600009   -0.457989
 C    3.035008   -0.702922   -0.823514
 C    1.719392   -1.039915   -0.620741
 O   -5.226916    4.062491    0.377469
 O   -6.897382   -0.135572   -0.172493
 H    3.419675   -2.467308    1.283774
 H    5.118385   -2.957205    1.530165
 H    4.686071   -1.240362    1.261643
 H    2.906147   -2.197759   -3.097276
 H    4.272494   -1.082519   -3.328521
 H    4.586806   -2.801735   -2.937376
 H    0.317996    3.148031    0.274536
 H   -0.830678    1.822407    0.532242
 H    0.238769    2.326042    1.844296
 H    5.548646    0.320981   -1.107605
 H    6.337487    2.522124   -0.344722
 H   -3.309717   -3.877231    1.037955
 H   -4.085336   -3.044231   -1.001065
 H   -4.616447   -2.036264    0.374350
 H   -1.809909   -4.843448    2.739747
 H    0.364318   -3.760160    3.251542
 H    1.034466   -1.697439    2.028936
 H   -5.710497   -1.383531   -1.788532
 H   -4.105269   -1.010898   -2.463785
 H   -3.018134    3.159648   -0.848316
 H   -2.887032    0.773212   -1.627392
 H   -6.878237    2.225999    0.548235
 H    2.396537    3.476116    1.040738
 H    1.354423   -2.033571   -0.870157
