79 
5vrp_ligand_ani.xyz
 C   -3.052546    3.009998   -0.203923
 C   -4.018224    3.193545   -1.174810
 C   -4.021162    2.323442   -2.256040
 C   -3.113112    1.274546   -2.310429
 C   -2.174955    1.053478   -1.297058
 C   -1.404328   -0.294015   -1.360784
 C   -0.598414   -0.331192   -2.696713
 C    0.861115   -0.810551   -2.646898
 N    3.228558   -0.233734   -2.347427
 O    4.004647    0.125075   -0.221833
 O    5.394862   -0.477598   -1.901483
 C    3.068574    4.300666    1.154021
 C    2.774849    2.836306    0.828986
 C    1.383240    2.437680    1.259419
 C    1.097717    2.193163    2.606381
 C   -0.207168    1.956086    3.026452
 C   -1.241352    1.919971    2.098529
 C   -0.972739    2.096628    0.742551
 C    0.331062    2.389464    0.341845
 C   -2.076627    2.012963   -0.262935
 F   -3.035626    3.865704    0.840182
 O   -0.515179   -0.423301   -0.284453
 C    1.868368    0.222613   -2.138307
 C    4.185689   -0.169841   -1.392580
 C    6.461372   -0.422188   -0.953962
 C   -2.438716   -1.491359   -1.331948
 C   -3.514892   -1.351389   -0.225347
 C   -3.900218   -2.696224    0.390028
 C   -2.683809   -3.326320    1.060886
 N   -1.528576   -3.277812    0.160688
 C   -1.778204   -2.880625   -1.227412
 C   -0.245418   -3.445377    0.580883
 O    0.703201   -3.491537   -0.205827
 C    0.020446   -3.521252    2.082497
 C    0.328364   -2.167226    2.757669
 O   -0.708353   -1.243607    2.419919
 C    1.702459   -1.569448    2.424354
 N    1.897566   -1.301821    0.983212
 H   -4.729041    4.007136   -1.081781
 H   -4.745767    2.454225   -3.054288
 H   -3.150264    0.609162   -3.171808
 H   -0.600408    0.671867   -3.147365
 H   -1.139601   -0.964243   -3.412961
 H    0.962444   -1.731038   -2.058792
 H    1.153207   -1.062206   -3.675294
 H    3.537420   -0.445706   -3.284482
 H    2.974429    4.481408    2.230927
 H    4.082269    4.580009    0.849417
 H    2.363412    4.963180    0.641292
 H    2.884586    2.662320   -0.249579
 H    3.514070    2.191300    1.321811
 H    1.903151    2.205294    3.337587
 H   -0.420727    1.820466    4.084377
 H   -2.262739    1.753404    2.431621
 H    0.528437    2.577140   -0.714056
 H   -1.039863   -0.457247    0.535727
 H    1.714602    1.182973   -2.656241
 H    1.741692    0.403130   -1.070665
 H    6.299675   -1.149040   -0.154065
 H    7.365673   -0.658793   -1.513668
 H    6.529038    0.574473   -0.511272
 H   -2.957609   -1.472269   -2.298483
 H   -4.397110   -0.851104   -0.637824
 H   -3.150871   -0.694641    0.576372
 H   -4.688574   -2.560689    1.138619
 H   -4.307516   -3.371617   -0.372442
 H   -2.893028   -4.363573    1.358756
 H   -2.443742   -2.755954    1.962057
 H   -2.432321   -3.628504   -1.691210
 H   -0.822789   -2.919393   -1.748713
 H    0.883909   -4.178479    2.213183
 H   -0.821328   -3.986910    2.605297
 H    0.310077   -2.343288    3.844138
 H   -0.547097   -0.404756    2.882369
 H    2.476854   -2.252152    2.784299
 H    1.812708   -0.622435    2.967888
 H    1.947605   -2.192672    0.468633
 H    1.071798   -0.795234    0.621707
 H    2.749488   -0.746824    0.809262
