86 
5vs6_ligand_ani.xyz
 N   -2.244442    2.048016   -0.497080
 N    2.147254   -3.890027    1.134732
 C   -3.369376    2.366837    0.381151
 C   -1.068117    2.728292   -0.528591
 C   -0.946307    3.961875    0.354460
 C    0.377002    4.705737    0.158154
 C    0.323229    6.075844    0.843027
 C    2.762655    3.932617   -0.102824
 C    2.778603    2.762064    2.411273
 C   -2.416324    0.912717   -1.406950
 C   -3.082244   -2.311556   -1.234519
 C    0.756479   -3.631158    1.100351
 C    3.021244   -3.688817    0.100339
 C    4.450288   -3.297854    0.467992
 C    3.150838   -0.502927    0.288790
 C    0.908256   -0.756548   -2.337689
 C    4.036851   -0.364832   -1.964239
 N   -3.755891   -1.935468   -0.100008
 C   -3.270307   -2.255938    1.171938
 O   -3.912603   -2.023752    2.180996
 C   -4.956458   -1.117001   -0.214931
 C    3.935173    3.369928    0.391101
 C    3.950262    2.791873    1.658179
 C    1.610118    3.326829    1.911649
 C   -3.898799    0.721192   -1.698072
 C   -1.261106   -3.020402   -0.067666
 C    0.077577   -3.431258   -0.087960
 C   -4.729368    0.394945   -0.446737
 C    4.919202   -2.130837   -0.428893
 C    1.738431   -0.049406   -0.099265
 C    2.908809    0.677247   -2.152114
 C    0.070635   -3.521327    2.328698
 C   -4.082313    1.076551    0.776506
 C   -1.246374   -3.119698    2.348838
 C   -1.917262   -2.828448    1.151812
 C    1.588104    3.934329    0.655778
 N   -1.890108   -2.796422   -1.282702
 N    3.760210   -1.289469   -0.824952
 N    1.592375    0.296909   -1.550568
 O   -6.012917    0.957398   -0.719056
 O   -0.141498    2.377025   -1.259309
 O    2.684964   -3.712281   -1.078977
 H    2.538433   -3.928887    2.063476
 H   -4.076540    3.051722   -0.108812
 H   -3.001730    2.864871    1.280017
 H   -1.778720    4.638256    0.121885
 H   -1.067851    3.675215    1.405690
 H    0.514522    4.851907   -0.918595
 H    0.226077    5.955589    1.929433
 H   -0.528699    6.664200    0.484875
 H    1.238339    6.645073    0.649722
 H    2.759066    4.381152   -1.094717
 H    2.776854    2.301885    3.395580
 H   -1.867658    1.126949   -2.327727
 H   -1.969604    0.009523   -0.970694
 H   -3.628274   -2.143732   -2.156999
 H    5.106488   -4.163626    0.330222
 H    4.503749   -3.019031    1.525848
 H    3.112787   -1.116477    1.189169
 H    3.790301    0.357987    0.514093
 H    0.764602   -0.414721   -3.367253
 H   -0.068403   -0.973657   -1.893736
 H    1.480365   -1.691644   -2.352061
 H    4.977612    0.165729   -1.768261
 H    4.180537   -0.957925   -2.874941
 H   -5.508443   -1.252288    0.715057
 H   -5.569258   -1.490263   -1.042598
 H    4.840988    3.382171   -0.211938
 H    4.861642    2.342505    2.044677
 H    0.715505    3.307006    2.531411
 H   -4.055916   -0.033046   -2.477601
 H   -4.304417    1.652523   -2.106839
 H    0.562908   -3.557278   -1.044512
 H    5.669434   -1.512833    0.078417
 H    5.373704   -2.523384   -1.342945
 H    1.461310    0.838503    0.478473
 H    1.015734   -0.840162    0.128513
 H    2.753495    0.865959   -3.217403
 H    3.202737    1.626841   -1.693919
 H    0.590944   -3.727769    3.261937
 H   -3.357382    0.405016    1.243928
 H   -4.853325    1.284847    1.528578
 H   -1.784290   -2.996916    3.283975
 H    3.077855   -1.985553   -1.163197
 H    0.992035    1.132276   -1.587856
 H   -6.593267    0.714368    0.014932
