86 
5vs6_ligand_dft.xyz
 N   -2.242516    2.022921   -0.496168
 N    2.296814   -3.981717    0.997436
 C   -3.402353    2.369908    0.344561
 C   -1.095587    2.709639   -0.538179
 C   -0.961272    3.990310    0.258434
 C    0.400939    4.674359    0.102860
 C    0.378521    6.033812    0.822723
 C    2.821159    3.995565   -0.030492
 C    2.661919    2.453750    2.270409
 C   -2.396661    0.853168   -1.368566
 C   -3.066895   -2.491334   -1.114047
 C    0.895173   -3.729934    1.038499
 C    3.089277   -3.610945   -0.032884
 C    4.507193   -3.145979    0.293614
 C    2.842822   -0.514268    0.317240
 C    0.815170   -0.799060   -2.491441
 C    3.791100   -0.013877   -1.887418
 N   -3.626264   -1.952384    0.015321
 C   -3.013692   -2.103566    1.273155
 O   -3.527340   -1.675941    2.288418
 C   -4.879042   -1.195923   -0.076919
 C    3.965873    3.380727    0.472932
 C    3.892180    2.609010    1.632851
 C    1.520793    3.072323    1.759779
 C   -3.871491    0.583160   -1.643341
 C   -1.185552   -3.165216   -0.028649
 C    0.117103   -3.688671   -0.107455
 C   -4.702531    0.314836   -0.372877
 C    4.838708   -1.845941   -0.490771
 C    1.399520   -0.234951   -0.101707
 C    2.568751    0.917582   -1.936498
 C    0.360143   -3.368594    2.291879
 C   -4.073957    1.082435    0.809730
 C   -0.930309   -2.891153    2.372068
 C   -1.697257   -2.747071    1.207727
 C    1.582082    3.860886    0.606577
 N   -1.910344   -3.053090   -1.204212
 N    3.596334   -1.070976   -0.845062
 N    1.307661    0.230779   -1.529254
 O   -5.980136    0.831877   -0.686044
 O   -0.138396    2.324570   -1.250900
 O    2.662111   -3.464014   -1.183016
 H    2.738459   -4.143614    1.893685
 H   -4.101918    2.993063   -0.223491
 H   -3.064677    2.944726    1.206207
 H   -1.747886    4.683097   -0.065073
 H   -1.170894    3.793634    1.316854
 H    0.558608    4.854393   -0.965872
 H    0.210010    5.905283    1.897498
 H   -0.413464    6.675482    0.424075
 H    1.331718    6.553510    0.694635
 H    2.895583    4.622989   -0.915730
 H    2.595525    1.886411    3.194822
 H   -1.876367    1.058676   -2.307038
 H   -1.913225   -0.016850   -0.899385
 H   -3.677071   -2.416515   -2.010376
 H    5.224678   -3.911188   -0.019075
 H    4.644551   -2.993358    1.366982
 H    2.847267   -1.235728    1.134790
 H    3.357391    0.391488    0.650185
 H    0.682416   -0.318958   -3.462063
 H   -0.142965   -1.186700   -2.138011
 H    1.508308   -1.636586   -2.583713
 H    4.680312    0.567919   -1.632196
 H    3.965704   -0.527407   -2.835253
 H   -5.406990   -1.333971    0.869456
 H   -5.483860   -1.625445   -0.879547
 H    4.922692    3.541693   -0.016241
 H    4.790913    2.174622    2.062123
 H    0.585209    2.968874    2.303345
 H   -3.966675   -0.227700   -2.370330
 H   -4.307873    1.463634   -2.124255
 H    0.485106   -4.025232   -1.065079
 H    5.496656   -1.194820    0.087769
 H    5.318797   -2.078323   -1.442766
 H    1.003035    0.566383    0.527004
 H    0.774867   -1.124560   -0.000745
 H    2.434861    1.315036   -2.943770
 H    2.684869    1.765392   -1.255365
 H    0.965471   -3.446253    3.191187
 H   -3.340161    0.470032    1.339116
 H   -4.852903    1.318247    1.541280
 H   -1.360246   -2.591910    3.322146
 H    3.015753   -1.827748   -1.264864
 H    0.572760    1.016288   -1.503388
 H   -6.577003    0.701402    0.063612
