46 
5vyy_ligand_ani.xyz
 C    1.638458    3.934644    0.495882
 C   -3.213834   -2.497343    2.431067
 C   -3.464279   -1.129966    2.503300
 C   -2.970621   -3.083942    1.192818
 C   -3.002014    3.422474   -0.618026
 C   -3.470638   -0.356204    1.346803
 C   -2.980690   -2.308168    0.036279
 C   -3.777718    2.309566   -0.788097
 C    3.955376   -1.631885   -0.053260
 C   -0.393944    1.018351   -1.219472
 C    0.089187    0.311049    0.066050
 C   -3.271341   -0.121489   -1.184774
 C    2.702697    1.825510    0.698153
 C   -3.233125   -0.936737    0.100252
 C    2.848268   -2.239752   -0.613211
 C    3.867803   -0.334449    0.448558
 C    1.619056   -1.558264   -0.615414
 C   -1.642036    1.813065   -1.014697
 C    1.474655   -0.287906   -0.068598
 C    2.649715    0.385591    0.360813
 N   -1.675819    3.104351   -0.755115
 N   -2.901987    1.274094   -1.037972
 O    3.610683    2.364310    1.320879
 O    3.005876   -3.483010   -1.114037
 O    4.979440    0.174981    0.985576
 O    1.672593    2.530515    0.230017
Cl    0.263394   -2.409366   -1.335028
 H    1.722370    4.127729    1.569143
 H    2.454773    4.446023   -0.023306
 H    0.665707    4.252657    0.114615
 H   -3.206801   -3.102182    3.333808
 H   -3.655453   -0.659132    3.464282
 H   -2.766749   -4.150406    1.122958
 H   -3.317517    4.436011   -0.407959
 H   -3.652462    0.713790    1.411084
 H   -2.776711   -2.775663   -0.925329
 H   -4.848264    2.160892   -0.758884
 H    4.901517   -2.158034   -0.010208
 H   -0.529489    0.280156   -2.017859
 H    0.371787    1.724639   -1.548057
 H   -0.628966   -0.474662    0.322643
 H    0.089670    1.017438    0.897122
 H   -4.278638   -0.136087   -1.614616
 H   -2.605018   -0.580408   -1.921177
 H    2.156698   -3.796789   -1.460412
 H    4.771896    1.084909    1.293207
