69 
5w0l_ligand_ani.xyz
 C    3.576339   -0.659803    0.053790
 C    3.249841   -1.516522    1.106472
 C    1.943959   -1.741337    1.517249
 N    6.981047   -0.817321   -1.412990
 C    0.900920   -1.068558    0.857630
 C    1.217846   -0.203556   -0.200533
 N   -0.426243   -1.299431    1.249955
 C    2.524412    0.010465   -0.591498
 C    2.800877    1.008203   -1.691111
 C   -0.720003   -2.456907    2.084559
 C    0.281543   -2.532931    3.227587
 N   -1.430812    0.800929    0.717581
 C    1.671234   -2.723426    2.637296
 C   -1.484035   -0.533941    0.782199
 C   -2.930565    2.613063    0.171942
 N   -2.648526    1.186870    0.274359
 N    7.123842    0.021968   -0.380816
 C    8.422860    0.585396   -0.089898
 O   -2.113778    5.335688    0.672523
 C    5.969055    0.222219    0.289365
 C   -1.860755    3.318744   -0.664123
 C   -2.090483    4.825508   -0.645072
 C   -3.150229    4.761976    1.443318
 C   -3.003428    3.249024    1.562711
 C    4.994583   -0.517012   -0.346650
 C   -3.460806    0.123707    0.056808
 C   -2.748770   -1.009446    0.363788
 C   -3.323829   -2.386576    0.176948
 C   -5.471751   -1.238382   -0.184351
 C   -4.866732    0.139975   -0.459679
 C   -4.787229   -2.931503   -1.792679
 C   -3.765339   -3.954192   -2.251434
 C    5.697593   -1.152110   -1.399203
 F    1.644100    1.478081   -2.228924
 F    3.483843    2.079926   -1.197775
 N   -4.554381   -2.300368   -0.594835
 O   -5.780531   -2.689383   -2.461015
 H    4.062539   -2.036282    1.610394
 H    0.431251    0.318775   -0.732202
 H    3.396306    0.584404   -2.503582
 H   -0.670273   -3.390747    1.498145
 H   -1.736476   -2.348922    2.469482
 H    0.022752   -3.360198    3.897306
 H    0.238476   -1.606707    3.812052
 H    2.440921   -2.630985    3.413661
 H    1.761728   -3.747119    2.242103
 H   -3.900876    2.723444   -0.325607
 H    9.133552   -0.212244    0.139949
 H    8.782541    1.154314   -0.950420
 H    8.328391    1.248627    0.771665
 H    5.920090    0.873220    1.155284
 H   -1.876935    2.946228   -1.694196
 H   -0.875331    3.094871   -0.236738
 H   -1.283812    5.351563   -1.163738
 H   -3.038556    5.066646   -1.158427
 H   -4.129786    5.008449    0.995666
 H   -3.101642    5.239405    2.426304
 H   -2.082175    3.004072    2.104615
 H   -3.847483    2.833628    2.125099
 H   -3.541077   -2.851030    1.151786
 H   -2.606249   -3.038348   -0.330376
 H   -6.406874   -1.386022   -0.725743
 H   -5.663882   -1.350144    0.889680
 H   -4.873515    0.328221   -1.541232
 H   -5.474959    0.919712    0.018562
 H   -4.152702   -4.411632   -3.161759
 H   -2.802871   -3.481388   -2.475111
 H   -3.602645   -4.731783   -1.498575
 H    5.315426   -1.845530   -2.141200
