32 
5w0q_ligand_xtb.xyz
 C   -0.846051   -1.483257   -0.642502
 C   -0.283503   -0.253434   -0.308443
 C   -1.126673    0.765678    0.157254
 C   -2.485820    0.518373    0.315168
 C    0.707295    2.255344    0.381988
 C    1.307524    1.451104   -0.774665
 C    2.162595   -0.741322   -0.194402
 C   -2.195445   -1.716444   -0.467350
 C   -4.502002   -0.966719    0.180016
 C    2.928110   -2.815064    0.836074
 C    0.912177    3.753918    0.216962
 C   -3.033217   -0.718216    0.018598
 N    1.071130    0.045583   -0.524169
 N    1.878564   -1.920385    0.417014
 O    3.294380   -0.382202   -0.455425
 O   -0.691827    2.019757    0.461785
 H   -0.217607   -2.250108   -1.069417
 H   -3.103462    1.325050    0.678482
 H    1.174198    1.914253    1.320426
 H    2.384264    1.605879   -0.846227
 H    0.826676    1.742707   -1.714493
 H   -2.606186   -2.680689   -0.726808
 H   -4.945943   -0.244107    0.859536
 H   -5.002713   -0.879488   -0.784571
 H   -4.683877   -1.969571    0.560468
 H    3.038737   -2.819649    1.923694
 H    2.717236   -3.829728    0.493885
 H    3.855218   -2.464038    0.386051
 H    0.433502    4.282114    1.036779
 H    1.973332    3.983905    0.212073
 H    0.467643    4.087485   -0.717120
 H    0.950759   -2.080608    0.774263
