35 
5w2p_ligand_dft.xyz
 N   -4.355118    0.755307    0.664229
 C   -0.281140   -0.321326   -1.104113
 C   -0.466178    0.926257   -1.755896
 C   -1.605378    1.674965   -1.556799
 C   -2.580365    1.193537   -0.669478
 C   -3.847303    1.626379   -0.180394
 C   -2.370712   -0.042958   -0.026528
 O    1.126068   -2.665545    0.582587
 S    1.879356   -1.655400   -0.140075
 O    3.135252   -1.971300   -0.800032
 C    2.127460   -0.275841    0.987692
 C    2.813386    0.920861    0.341317
 C    3.063731    2.041298    1.353037
 C    3.727976    3.258791    0.713605
 N    0.911571   -1.040556   -1.366645
 C   -1.232485   -0.833353   -0.239318
 N   -3.458525   -0.256132    0.761062
 C   -3.731571   -1.405049    1.590638
 H    0.308923    1.287315   -2.426995
 H   -1.735838    2.622275   -2.070617
 H   -4.392084    2.530894   -0.413333
 H    2.718464   -0.696001    1.807994
 H    1.136991   -0.020476    1.376991
 H    2.183673    1.306447   -0.470850
 H    3.760896    0.598654   -0.105221
 H    3.694388    1.661266    2.166895
 H    2.110627    2.338080    1.809261
 H    4.694253    2.992471    0.271054
 H    3.099542    3.676734   -0.080974
 H    3.902444    4.047073    1.452267
 H    1.487371   -0.683287   -2.119758
 H   -1.093911   -1.799142    0.232348
 H   -4.643175   -1.194602    2.148956
 H   -3.876288   -2.302649    0.980472
 H   -2.906540   -1.575596    2.289179
