35 
5w2p_ligand_xtb.xyz
 N   -4.304037    0.652346    0.749291
 C   -0.285106   -0.243031   -1.160727
 C   -0.631725    0.894021   -1.922347
 C   -1.810139    1.566376   -1.719854
 C   -2.675073    1.103713   -0.725660
 C   -3.939144    1.473743   -0.202838
 C   -2.317687   -0.043266    0.029540
 O    1.129038   -2.680734    0.378233
 S    1.847241   -1.591936   -0.209790
 O    3.111105   -1.855149   -0.827196
 C    2.041296   -0.283098    1.036780
 C    2.714625    0.912612    0.398871
 C    3.130904    1.968290    1.424779
 C    3.797133    3.162555    0.753197
 N    0.923612   -0.890195   -1.413050
 C   -1.122424   -0.727316   -0.174526
 N   -3.336282   -0.262109    0.896879
 C   -3.456297   -1.314905    1.861262
 H    0.055749    1.226063   -2.687477
 H   -2.063840    2.432950   -2.310896
 H   -4.570850    2.290704   -0.488637
 H    2.648947   -0.726513    1.820973
 H    1.048381   -0.062750    1.418020
 H    2.033446    1.369732   -0.323140
 H    3.595119    0.557020   -0.140928
 H    3.821992    1.521867    2.142047
 H    2.248948    2.303640    1.974792
 H    4.685017    2.847043    0.210557
 H    3.115040    3.635649    0.050395
 H    4.091575    3.901149    1.494347
 H    1.491046   -0.504617   -2.150272
 H   -0.854565   -1.606716    0.385726
 H   -2.673867   -1.237166    2.619671
 H   -4.430667   -1.219244    2.335459
 H   -3.379706   -2.289228    1.374993
