77 
5w38_ligand_ani.xyz
 C   -6.296907    0.578564   -0.142299
 C   -5.526790   -0.717177   -0.429647
 C   -4.216278   -0.707849    0.355505
 C   -3.452053    0.577433    0.038681
 C   -4.343193    1.771179    0.356158
 C   -3.642922    3.097039    0.103314
 C   -7.411662   -2.272532   -0.717603
 C   -7.903986   -3.672978   -0.408638
 N   -6.268689   -1.907773   -0.056609
 O   -3.490968   -1.866251    0.014766
 O   -2.286151    0.694463    0.831456
 O   -5.503429    1.710870   -0.456158
 O   -2.974397    3.122493   -1.151530
 O   -7.982407   -1.529169   -1.499377
 C   -1.097418    0.231196    0.270638
 C    0.023277    1.199028    0.634348
 C    1.415450    0.672662    0.231550
 C    1.581202   -0.808772    0.612619
 C    0.344470   -1.636360    0.263910
 C    0.416050   -3.045252    0.831708
 C    0.185990    3.662434    0.512777
 C   -0.425650    4.907533   -0.085700
 N   -0.289804    2.489606    0.027189
 O    2.425462    1.422520    0.880323
 O    2.639269   -1.446864   -0.096000
 O   -0.840125   -1.046553    0.782160
 O    0.584318   -2.941047    2.230295
 O    1.057151    3.705111    1.383660
 C    3.937106   -1.057355    0.223858
 C    4.876857   -2.237485   -0.048588
 C    6.329053   -1.791290    0.093735
 C    6.588503   -0.510369   -0.707861
 C    5.572249    0.547595   -0.315974
 C    5.656206    1.864145   -1.071175
 O    4.722227   -2.684915   -1.381395
 O    7.232374   -2.800769   -0.301887
 O    7.887650   -0.038069   -0.436437
 O    4.274963    0.033752   -0.590344
 O    4.725821    2.776746   -0.534350
 H   -6.594209    0.599127    0.919668
 H   -7.198022    0.620382   -0.752611
 H   -5.302306   -0.733848   -1.504389
 H   -4.448171   -0.704451    1.437482
 H   -3.201590    0.587446   -1.031947
 H   -4.635149    1.729112    1.417902
 H   -4.366910    3.918399    0.175215
 H   -2.880096    3.242259    0.872717
 H   -7.664097   -3.990673    0.611081
 H   -8.984884   -3.702791   -0.555842
 H   -7.448883   -4.384542   -1.106909
 H   -5.706550   -2.649388    0.343571
 H   -2.627638   -1.811295    0.461391
 H   -3.651917    2.980011   -1.828662
 H   -1.193417    0.153499   -0.827900
 H    0.024197    1.301665    1.727563
 H    1.539460    0.759563   -0.859282
 H    1.763374   -0.852724    1.695173
 H    0.266495   -1.693462   -0.834686
 H   -0.517978   -3.567110    0.572347
 H    1.254649   -3.583266    0.365667
 H   -1.466472    5.019223    0.239330
 H    0.145081    5.775585    0.245920
 H   -0.432624    4.860692   -1.179209
 H   -1.098409    2.542518   -0.591332
 H    2.035883    2.267574    1.200667
 H    0.368817   -3.791564    2.627420
 H    4.007515   -0.770112    1.287205
 H    4.673140   -3.053661    0.662156
 H    6.542503   -1.581739    1.149991
 H    6.452123   -0.734829   -1.779439
 H    5.663256    0.770206    0.763356
 H    6.656903    2.295629   -0.968911
 H    5.470382    1.672573   -2.141386
 H    3.771277   -2.684941   -1.562960
 H    6.891367   -3.157766   -1.136473
 H    8.468052   -0.805612   -0.543496
 H    3.902893    2.278591   -0.373779
