77 
5w38_ligand_xtb.xyz
 C   -6.241400    0.659609   -0.343679
 C   -5.487063   -0.674924   -0.459490
 C   -4.214637   -0.638341    0.396547
 C   -3.405298    0.606545   -0.003208
 C   -4.296261    1.850503    0.173202
 C   -3.535427    3.141656   -0.155403
 C   -7.454022   -2.139648   -0.661792
 C   -8.036456   -3.444751   -0.163324
 N   -6.308177   -1.785168   -0.025405
 O   -3.518655   -1.840108    0.195223
 O   -2.239497    0.793585    0.781145
 O   -5.416990    1.752832   -0.674481
 O   -2.781481    3.052081   -1.340589
 O   -7.967622   -1.457602   -1.521018
 C   -1.057155    0.272682    0.286824
 C    0.090018    1.169494    0.755680
 C    1.463470    0.585640    0.378624
 C    1.536485   -0.927737    0.682257
 C    0.257556   -1.670216    0.268771
 C    0.273604   -3.110231    0.785430
 C    0.423853    3.601719    0.717472
 C    0.007593    4.889193    0.061251
 N   -0.102972    2.484417    0.169202
 O    2.488436    1.232550    1.090137
 O    2.562496   -1.586981   -0.042018
 O   -0.905470   -1.043727    0.759766
 O    0.481898   -3.102536    2.175758
 O    1.211197    3.549611    1.647702
 C    3.863033   -1.172481    0.209065
 C    4.826720   -2.293919   -0.210672
 C    6.277798   -1.811126   -0.011651
 C    6.501378   -0.463222   -0.731953
 C    5.405685    0.520080   -0.306126
 C    5.445238    1.856014   -1.042946
 O    4.629329   -2.631739   -1.562513
 O    7.186696   -2.772026   -0.485345
 O    7.761001    0.062333   -0.412698
 O    4.137202   -0.047452   -0.587080
 O    4.519999    2.756874   -0.500344
 H   -6.625448    0.768555    0.681016
 H   -7.073868    0.673332   -1.047348
 H   -5.195223   -0.819235   -1.510201
 H   -4.489323   -0.536070    1.460800
 H   -3.127162    0.516286   -1.063520
 H   -4.618880    1.901908    1.225118
 H   -4.262931    3.959178   -0.219132
 H   -2.826336    3.345089    0.648075
 H   -8.134707   -3.426514    0.919027
 H   -9.011892   -3.597357   -0.615082
 H   -7.382535   -4.268272   -0.442348
 H   -5.829057   -2.472601    0.535643
 H   -2.625203   -1.743810    0.571297
 H   -3.396795    2.882702   -2.064502
 H   -1.062907    0.253277   -0.825590
 H    0.035136    1.250993    1.850022
 H    1.624524    0.722004   -0.704396
 H    1.699208   -1.051457    1.761520
 H    0.225528   -1.695682   -0.832800
 H   -0.689486   -3.574617    0.534934
 H    1.083207   -3.638714    0.266970
 H   -0.134521    5.650476    0.823672
 H    0.821337    5.216924   -0.583821
 H   -0.894943    4.771041   -0.529863
 H   -0.811703    2.575456   -0.545834
 H    2.149270    2.083577    1.450526
 H    0.443841   -4.008125    2.500768
 H    4.005757   -0.922879    1.276176
 H    4.649586   -3.198465    0.380948
 H    6.489503   -1.676747    1.055226
 H    6.427369   -0.630068   -1.821209
 H    5.497035    0.707341    0.774647
 H    6.443028    2.291905   -0.953745
 H    5.222897    1.674266   -2.105611
 H    4.207251   -1.872772   -1.987187
 H    6.801362   -3.151848   -1.288650
 H    8.388217   -0.673823   -0.416848
 H    3.800329    2.239201   -0.103726
