77 
5w38_ligand_dft.xyz
 C   -6.182602    0.583430   -0.378467
 C   -5.374856   -0.714444   -0.529860
 C   -4.149314   -0.669409    0.379423
 C   -3.383729    0.614566    0.084781
 C   -4.294449    1.826966    0.275848
 C   -3.570644    3.138705    0.018038
 C   -7.176130   -2.309692   -1.009351
 C   -7.698492   -3.703769   -0.721264
 N   -6.158159   -1.889851   -0.195733
 O   -3.385238   -1.828593    0.144405
 O   -2.257386    0.775332    0.929731
 O   -5.372127    1.720534   -0.630824
 O   -2.794138    3.117999   -1.170534
 O   -7.626829   -1.613301   -1.904227
 C   -1.058619    0.267306    0.469327
 C    0.068923    1.218834    0.847500
 C    1.433043    0.635155    0.438481
 C    1.565115   -0.820973    0.921428
 C    0.312057   -1.643971    0.594862
 C    0.347955   -3.035046    1.199256
 C    0.305931    3.656475    0.765362
 C   -0.195010    4.947776    0.165333
 N   -0.184809    2.511792    0.229988
 O    2.487463    1.413326    0.963276
 O    2.609871   -1.548475    0.285802
 O   -0.851623   -0.988985    1.076115
 O    0.519768   -2.919352    2.592801
 O    1.126968    3.646146    1.683358
 C    3.902366   -1.035239    0.356265
 C    4.868953   -2.200114    0.123548
 C    6.287006   -1.665672   -0.085555
 C    6.325223   -0.502806   -1.086101
 C    5.306728    0.545637   -0.657637
 C    5.165951    1.762465   -1.550763
 O    4.523488   -2.918415   -1.044767
 O    7.167640   -2.693559   -0.492566
 O    7.613393    0.064135   -1.118108
 O    4.033011   -0.087692   -0.663238
 O    4.266966    2.689539   -0.994959
 H   -6.608456    0.636495    0.636098
 H   -6.991720    0.601509   -1.106235
 H   -5.031940   -0.780404   -1.571796
 H   -4.484007   -0.632567    1.431018
 H   -3.056877    0.595691   -0.962737
 H   -4.671015    1.842925    1.313108
 H   -4.307033    3.951079   -0.008260
 H   -2.866644    3.326131    0.830908
 H   -7.528059   -4.015197    0.313224
 H   -8.767123   -3.731013   -0.939572
 H   -7.199554   -4.416185   -1.386940
 H   -5.659437   -2.597257    0.327223
 H   -2.580086   -1.767846    0.688909
 H   -3.392963    2.959993   -1.912160
 H   -1.090409    0.134990   -0.628050
 H    0.045359    1.338540    1.937835
 H    1.501512    0.634324   -0.658920
 H    1.724417   -0.816696    2.006475
 H    0.246385   -1.751942   -0.500898
 H   -0.595118   -3.543986    0.947544
 H    1.173673   -3.582836    0.726958
 H   -0.540932    5.594895    0.975445
 H    0.646730    5.451352   -0.318761
 H   -0.997822    4.801874   -0.561278
 H   -0.928980    2.583505   -0.459199
 H    2.115604    2.202176    1.414385
 H    0.670300   -3.799792    2.952736
 H    4.086233   -0.566695    1.336153
 H    4.848396   -2.866519    0.998765
 H    6.676000   -1.289193    0.868573
 H    6.029918   -0.881879   -2.077453
 H    5.542722    0.897514    0.360394
 H    6.140419    2.246878   -1.661319
 H    4.837967    1.422117   -2.547349
 H    3.562480   -2.868115   -1.135153
 H    6.695501   -3.184080   -1.182075
 H    8.227076   -0.681464   -1.179983
 H    3.605995    2.191906   -0.480252
