54 
5w3i_ligand_xtb.xyz
 N    1.136732   -0.699822    1.560302
 C    5.439368    2.055821   -2.140579
 O    1.803835   -2.811739    1.225115
 C   -1.089768   -1.470387    0.909927
 C   -2.871637   -1.054829   -0.447200
 C   -2.674009   -2.197312   -1.186587
 C   -1.542569   -3.084502   -0.849264
 C   -3.972986   -0.125952   -0.786347
 C   -4.940495    2.050447   -0.192168
 C   -0.058878    1.261961    2.062625
 C   -0.652863    0.097062    2.850157
 C   -0.173636   -1.117880    2.060566
 C   -4.136719    3.286735   -0.596864
 C    1.315444    0.738754    1.648665
 C    2.049789   -1.614858    1.212978
 C    3.440457   -1.104774    0.847835
 C    6.710590    1.774170   -1.664468
 C    6.870127    0.826331   -0.671817
 C    5.776028    0.157490   -0.145890
 C    4.503166    0.442004   -0.622438
 C    4.342190    1.397762   -1.625350
 N   -2.070976   -0.698742    0.604236
 N   -0.812215   -2.617089    0.237959
 N   -4.063996    0.932591    0.030310
 O   -3.440848   -2.552127   -2.208015
 O   -1.240684   -4.105831   -1.417674
 O   -4.736132   -0.333381   -1.731420
 O    3.349225   -0.143291   -0.176068
 O   -3.250966    3.597600    0.457641
 C   -2.430975    4.702471    0.180850
 H    5.302743    2.792325   -2.918108
 H   -5.492742    2.266484    0.726582
 H   -5.635159    1.776909   -0.989002
 H   -0.670249    1.452794    1.182175
 H    0.010762    2.174807    2.649521
 H   -0.242498    0.067220    3.859775
 H   -1.736739    0.135669    2.900622
 H   -0.041344   -2.013899    2.678871
 H   -4.815897    4.130421   -0.789997
 H   -3.569947    3.080407   -1.517613
 H    2.071504    0.970048    2.409119
 H    1.647467    1.145077    0.693092
 H    3.900946   -0.673514    1.751005
 H    4.028965   -1.972739    0.525419
 H    7.568968    2.288901   -2.067817
 H    7.856133    0.596704   -0.295816
 H    5.931762   -0.581153    0.624672
 H    3.346442    1.601148   -1.987333
 H    0.022075   -3.146910    0.505076
 H   -3.338134    1.031881    0.726732
 H   -4.135315   -1.850137   -2.321161
 H   -1.800279    4.519928   -0.698232
 H   -3.026229    5.606125    0.002591
 H   -1.801214    4.850016    1.055765
