75 
5w4r_ligand_ani.xyz
 C    1.606122   -2.084968   -0.293379
 C    2.719836   -2.457451   -1.250048
 C    3.956339   -1.604052   -1.049440
 C    4.172782   -0.470014   -1.835755
 C    5.279300    0.341337   -1.639210
 C    6.186854    0.027663   -0.630790
 C    5.990221   -1.101631    0.162128
 C    8.977545    1.985025    0.473726
 C    8.823330    2.264983   -0.902781
 C   -3.265605    1.622414    1.027795
 C   -2.645929    2.844588    0.391857
 C   -1.341498    4.603046    0.191209
 C   -4.120369    0.475902   -1.161713
 C   -5.365629    0.145481    0.962029
 C   -6.680343   -1.896473   -1.698985
 C    2.444857   -4.304734    2.474594
 O    2.486737   -3.638715    1.218184
 C    1.533120   -2.712839    0.995242
 N    0.644820   -2.467788    1.910147
 C   -0.294431   -1.507384    1.647557
 C   -1.284102   -1.240774    2.626368
 C   -2.228611   -0.264399    2.422543
 C   -2.230551    0.510555    1.238119
 C   -1.284872    0.251381    0.270966
 C   -0.315002   -0.771747    0.443153
 C    0.665161   -1.120367   -0.528959
Cl    0.630654   -0.289945   -2.058273
 C    4.880492   -1.906299   -0.047998
 N    7.310741    0.867275   -0.417344
 C    7.980506    1.083345    0.748706
 N    7.811322    1.597020   -1.432747
 O   -3.737152    1.977088    2.336983
 C   -2.922778    3.560849   -0.750231
 N   -2.106785    4.651624   -0.869563
 N   -1.622484    3.547811    0.999079
 C   -0.899216    3.180750    2.202318
 C   -4.478702    1.125918    0.184229
 C   -5.388784    0.154728   -1.944861
 N   -6.259988   -0.709913   -1.160305
 C   -6.614816   -0.193607    0.151237
 C   -7.602007   -2.752298   -0.850140
 O   -6.333138   -2.261153   -2.813153
 H    2.363689   -2.356617   -2.279935
 H    2.967117   -3.511669   -1.098537
 H    3.475190   -0.213660   -2.629143
 H    5.451638    1.212346   -2.262966
 H    6.717773   -1.362793    0.924844
 H    9.707292    2.391584    1.158907
 H    9.406197    2.929760   -1.527865
 H   -0.559842    5.310601    0.441725
 H   -3.458024    1.110395   -1.762283
 H   -3.583506   -0.466426   -0.991915
 H   -4.800997   -0.775179    1.167131
 H   -5.657120    0.568738    1.928239
 H    3.287199   -4.997304    2.468069
 H    1.501840   -4.845706    2.594270
 H    2.540679   -3.586813    3.293974
 H   -1.261688   -1.828678    3.538287
 H   -2.984353   -0.073066    3.179646
 H   -1.290270    0.825547   -0.652538
 H    4.729330   -2.781451    0.574898
 H    7.673619    0.610269    1.671062
 H   -4.300825    2.754543    2.224037
 H   -3.678213    3.357105   -1.493723
 H   -0.159881    2.397916    1.996647
 H   -0.386031    4.070828    2.569150
 H   -1.595257    2.830577    2.966921
 H   -5.084011    2.023739   -0.020638
 H   -5.170793   -0.375341   -2.872730
 H   -5.924607    1.083330   -2.197678
 H   -7.228899   -0.921880    0.682387
 H   -7.221334    0.717729    0.031733
 H   -7.118117   -3.057946    0.083440
 H   -8.527726   -2.223533   -0.601201
 H   -7.845467   -3.641417   -1.431469
