39 
5w4w_ligand_ani.xyz
 C    0.090928    1.071806   -0.359813
 N   -0.395627    3.209967   -0.261073
 C   -2.390474    0.334986    0.139670
 C   -3.197886   -1.724392    1.137893
 C    3.109976    0.214047    0.520520
 C   -2.173679   -0.819219    0.901254
 C    2.581789   -1.773269   -0.555899
 C    0.732284   -2.409079   -1.648360
 C    2.057386   -0.522924   -0.249334
 C   -0.314290    4.655112   -0.309554
 C    0.621530    2.345603   -0.402271
 C   -1.307183    1.299438   -0.126980
 N   -1.572468    2.602098   -0.111000
 C   -4.451907   -1.455624    0.614166
 C   -4.711166   -0.312581   -0.125224
 C   -3.676998    0.585081   -0.348584
 F   -5.450398   -2.326879    0.835513
 C    0.755356   -0.204555   -0.649455
 C    0.100539   -1.197359   -1.386539
 N    1.968565   -2.719458   -1.239627
 O    3.082615    1.344231    0.978838
 N    4.175955   -0.643116    0.630307
 C    3.967767   -1.918883   -0.006080
 C    5.386175   -0.294182    1.331997
 H   -3.038780   -2.626503    1.718518
 H   -1.183981   -1.024493    1.299548
 H    0.214200   -3.178060   -2.218076
 H    0.616434    4.970714    0.168082
 H   -0.331598    5.017173   -1.342902
 H   -1.169284    5.054991    0.236935
 H    1.646519    2.684788   -0.497535
 H   -5.711441   -0.135797   -0.507622
 H   -3.862551    1.496708   -0.909716
 H   -0.909458   -1.028229   -1.742592
 H    4.695049   -2.106088   -0.805105
 H    4.027848   -2.750144    0.706537
 H    5.564660   -0.971013    2.177273
 H    6.256206   -0.328886    0.664137
 H    5.262965    0.722429    1.707497
