29 
5w5j_ligand_ani.xyz
 C   -1.374296    0.270167   -0.207935
 C   -2.672043   -0.241749   -0.006689
 C   -0.156598   -0.554080   -0.205075
 C    3.388573    0.553264    0.122847
 C   -4.589146   -1.616123    0.403210
 C   -5.416917   -0.466946    0.306258
 C    2.643272   -1.702229   -0.241079
 C    4.703637    0.122534    0.221095
 C    3.960580   -2.130729   -0.145155
 C    4.993386   -1.229522    0.087071
 N   -3.508434    0.847044   -0.097419
 N   -2.850544    2.001498   -0.350296
 C   -1.573337    1.653916   -0.414162
 N    1.026602    0.151505   -0.191390
 C    2.333269   -0.345570   -0.102765
 C   -3.227838   -1.514698    0.248745
 C   -4.865642    0.755677    0.055038
 O   -0.216949   -1.776307   -0.206865
Cl    3.062031    2.260259    0.291743
 H   -5.044159   -2.583605    0.601794
 H   -6.490825   -0.551080    0.430396
 H    1.840497   -2.404377   -0.417135
 H    5.488713    0.851294    0.401160
 H    4.175697   -3.190497   -0.252379
 H    6.019556   -1.575857    0.163139
 H   -0.855363    2.435522   -0.634882
 H    0.961145    1.156465   -0.123425
 H   -2.562302   -2.364267    0.310057
 H   -5.406668    1.688671   -0.038123
