65 
5w5o_ligand_dft.xyz
 C   -1.359033   -2.452985   -0.408470
 C    0.050111   -2.457374   -0.267688
 C    2.874099   -2.281152   -0.022553
 C    4.282770   -1.852423    0.355216
 C   -4.505191   -0.600807   -0.215144
 C    4.966819    0.506835    0.426986
 C    6.315386    0.443095    1.141414
 C    7.169689   -0.966646   -0.598900
 C    5.816887   -0.900557   -1.309775
 C   -4.392568    0.720321   -0.641679
 C   -5.497199    1.574423   -0.498947
 C   -6.753713   -0.099678    0.371746
 C   -5.731102   -1.031934    0.312941
 C    8.686867    0.236233    0.818491
 N   -2.059938   -1.270561   -0.151035
 C    0.700776   -1.318768    0.131096
 C   -0.068329   -0.127640    0.380743
 C   -1.423452   -0.140860    0.259042
 C   -3.411238   -1.560990   -0.336830
 C   -3.421462   -2.890776   -0.689775
 N   -2.175540   -3.436358   -0.741303
 O    2.017983   -1.207699    0.328350
 N    4.705668   -0.674505   -0.393148
 N    7.389055    0.246020    0.175585
 N   -6.668190    1.163414    0.003416
Cl   -8.304273   -0.605585    1.013549
 N   -5.447160    2.880374   -0.921896
 S    0.651605    1.457802    0.812690
 O   -0.460531    2.274283    1.308885
 O    1.819740    1.250729    1.661040
 C    1.188124    2.194779   -0.797765
 C   -0.063563    2.663764   -1.541811
 C    2.076351    3.380775   -0.405116
 C    1.965657    1.177663   -1.634249
 H    0.563900   -3.388720   -0.463832
 H    2.589836   -3.187765    0.529301
 H    2.795577   -2.475836   -1.100491
 H    4.953394   -2.704991    0.182771
 H    4.299722   -1.658963    1.434340
 H    4.971932    1.379320   -0.239909
 H    4.144237    0.639016    1.135085
 H    6.302986   -0.368606    1.899391
 H    6.492568    1.381861    1.678498
 H    7.972590   -1.063179   -1.339254
 H    7.211217   -1.870237    0.046568
 H    5.637345   -1.820482   -1.876783
 H    5.838705   -0.070272   -2.026170
 H   -3.492746    1.085401   -1.125553
 H   -5.865958   -2.041048    0.680038
 H    8.841967    1.179917    1.351624
 H    8.801190   -0.592004    1.545065
 H    9.473743    0.137722    0.063231
 H   -2.023292    0.728144    0.496052
 H   -4.297866   -3.473621   -0.942386
 H   -4.546424    3.333518   -0.931371
 H   -6.210741    3.454897   -0.595393
 H   -0.727040    1.823855   -1.776995
 H   -0.619719    3.403434   -0.961698
 H    0.244307    3.116538   -2.490401
 H    1.541322    4.083523    0.240753
 H    2.976199    3.042363    0.114028
 H    2.373981    3.909086   -1.316931
 H    2.787786    0.707963   -1.088864
 H    1.309417    0.387419   -2.014205
 H    2.381903    1.702873   -2.501247
