65 
5w5o_ligand_ani.xyz
 C   -1.359171   -2.383381   -1.085660
 C    0.053821   -2.415000   -1.109310
 C    2.762572   -2.486299   -0.044910
 C    3.895914   -2.014971    0.856154
 C   -4.401964   -0.537646   -0.205026
 C    5.160073   -0.727802   -0.813275
 C    5.372476    0.628190   -0.132984
 C    6.544241   -0.451515    1.653489
 C    6.335754   -1.802900    0.964529
 C   -4.403246    0.790610   -0.621173
 C   -5.451740    1.634159   -0.220991
 C   -6.439787   -0.045060    0.924049
 C   -5.470347   -0.976241    0.585252
 C    6.836710    1.896961    1.279750
 N   -1.985144   -1.240947   -0.579076
 C    0.771228   -1.334979   -0.647486
 C    0.083771   -0.172483   -0.182990
 C   -1.276108   -0.166169   -0.110509
 C   -3.353270   -1.490644   -0.616189
 C   -3.454491   -2.756038   -1.147477
 N   -2.249437   -3.302821   -1.437182
 O    2.125505   -1.349681   -0.651848
 N    5.147122   -1.850096    0.122930
 N    6.598295    0.610653    0.657931
 N   -6.461741    1.220823    0.550438
Cl   -7.765176   -0.564763    1.930284
 N   -5.503169    2.942740   -0.647685
 S    0.934669    1.271186    0.422099
 O   -0.018825    2.016306    1.241590
 O    2.215009    0.872763    1.008212
 C    1.288473    2.315523   -1.067377
 C   -0.029800    2.788651   -1.675826
 C    2.079767    3.497605   -0.505408
 C    2.126183    1.540287   -2.075926
 H    0.542015   -3.303146   -1.485891
 H    2.021917   -3.042177    0.543165
 H    3.160895   -3.137323   -0.831606
 H    4.065875   -2.786592    1.616639
 H    3.556882   -1.099762    1.364395
 H    5.974642   -0.901092   -1.530317
 H    4.212058   -0.734238   -1.359945
 H    4.493561    0.873702    0.495460
 H    5.458667    1.413750   -0.896806
 H    7.491875   -0.455585    2.206475
 H    5.736409   -0.276711    2.397183
 H    6.283652   -2.607611    1.708692
 H    7.206036   -2.007998    0.326389
 H   -3.603248    1.170992   -1.248098
 H   -5.538436   -1.993890    0.952099
 H    6.919537    2.672744    0.511250
 H    6.030371    2.191798    1.981515
 H    7.780062    1.873040    1.835604
 H   -1.836523    0.639056    0.343886
 H   -4.376698   -3.289440   -1.344926
 H   -4.621866    3.381845   -0.865699
 H   -6.140376    3.519500   -0.117840
 H   -0.593417    1.959205   -2.116555
 H   -0.646822    3.283059   -0.920976
 H    0.182456    3.504574   -2.478926
 H    1.496685    4.020230    0.258165
 H    3.012534    3.149564   -0.050855
 H    2.325920    4.202071   -1.309208
 H    3.057543    1.204645   -1.615795
 H    1.597030    0.673596   -2.483044
 H    2.382706    2.201451   -2.912201
