92 
5w6o_ligand_xtb.xyz
 C   -5.043757   -1.602056   -0.843975
 C   -4.710248   -2.911553   -1.214759
 C   -3.417717   -3.248007   -1.566479
 C   -2.429213   -2.281487   -1.562070
 C   -2.730173   -0.979006   -1.201298
 C   -4.016582   -0.648510   -0.834724
 C   -3.497278    0.391468    2.568467
 C   -2.393941    1.806775    0.986376
 C   -3.485329    2.653353    0.984026
 C   -1.256605   -0.279538    1.705209
 C    0.053205    0.187956    1.676210
 C    2.033571   -3.043672    1.340795
 N    3.320084   -2.438392    1.104603
 C    4.273945   -2.467667    2.093276
 C    5.497782   -1.955880    1.972188
 C    5.941500   -1.230401    0.741989
 C    4.901479   -1.332741   -0.352197
Cl   -0.807698   -2.704578   -1.987184
 N   -6.330929   -1.271554   -0.479968
 C   -7.304144   -2.318037   -0.260332
 C   -6.693208    0.033452   -0.096496
 C   -7.260274    0.290823    1.089544
 C   -7.718409    1.685715    1.384272
 C   -6.473051    1.143571   -1.023862
 C   -6.216322    0.945263   -2.377527
 C   -5.902231    2.009100   -3.198422
 C   -5.827255    3.289026   -2.668333
 C   -6.107226    3.508710   -1.334285
 C   -6.463467    2.451281   -0.501127
 N   -6.836495    2.693916    0.823736
 C   -5.817677    3.263250    1.695951
 C   -4.592286    2.387255    1.780124
 C   -4.576446    1.252908    2.582757
 C   -2.390708    0.651985    1.764755
 C   -1.473162   -1.654417    1.635224
 C   -0.411251   -2.526693    1.512068
 C    1.116071   -0.689180    1.572205
 C    0.895934   -2.054882    1.474552
 C    3.626462   -1.869738   -0.123271
 C    2.687007   -1.826895   -1.156459
 C    3.011835   -1.292716   -2.387250
 C    4.279645   -0.789814   -2.622305
 C    5.209273   -0.809629   -1.599378
 N    6.199714    0.185458    1.055426
 C    5.019915    0.931589    1.421001
 C    7.260595    0.847632    0.475358
 C    7.156845    2.176334    0.040944
 C    8.241539    2.846644   -0.488959
 C    9.461781    2.205000   -0.601324
Cl   10.823271    3.042139   -1.273825
 C    9.599593    0.895385   -0.171201
 C    8.516478    0.231871    0.364071
 H   -5.456235   -3.688219   -1.232151
 H   -3.181584   -4.263978   -1.843377
 H   -1.956751   -0.227848   -1.192184
 H   -4.222957    0.362990   -0.528930
 H   -3.502093   -0.485548    3.199148
 H   -1.547299    2.025582    0.352201
 H   -3.481294    3.529761    0.351516
 H    0.243585    1.248716    1.751496
 H    2.098584   -3.625200    2.266947
 H    1.802077   -3.751233    0.534084
 H    3.968756   -2.966897    3.002329
 H    6.197695   -2.018166    2.788593
 H    6.884581   -1.650866    0.378481
 H   -6.979538   -3.022594    0.511823
 H   -8.243292   -1.865114    0.048056
 H   -7.484078   -2.870574   -1.186558
 H   -7.406598   -0.473399    1.836582
 H   -7.809166    1.849112    2.458830
 H   -8.714923    1.848879    0.940263
 H   -6.252765   -0.056691   -2.779363
 H   -5.705828    1.843702   -4.246804
 H   -5.566266    4.122090   -3.304297
 H   -6.079291    4.510974   -0.933700
 H   -5.542100    4.244686    1.301445
 H   -6.264026    3.405340    2.683265
 H   -5.419446    1.039898    3.224274
 H   -2.483588   -2.035802    1.640514
 H   -0.595973   -3.588828    1.433927
 H    2.123231   -0.300901    1.555294
 H    1.687163   -2.195121   -1.002753
 H    2.263357   -1.272451   -3.165347
 H    4.538801   -0.377756   -3.585433
 H    6.197262   -0.399961   -1.759320
 H    4.422864    0.306346    2.085386
 H    4.402773    1.217871    0.559184
 H    5.310998    1.827751    1.967890
 H    6.214149    2.695278    0.096537
 H    8.134795    3.866765   -0.824335
 H   10.555497    0.400445   -0.245726
 H    8.658568   -0.776503    0.720837
