92 
5w6o_ligand_ani.xyz
 C   -5.148218   -1.088353   -1.843565
 C   -4.722057   -1.871157   -2.924469
 C   -3.377964   -2.155759   -3.121712
 C   -2.440424   -1.664568   -2.228827
 C   -2.838590   -0.884834   -1.149414
 C   -4.181772   -0.601091   -0.947483
 C   -3.694379   -0.698793    2.728349
 C   -2.575673    1.238651    1.863326
 C   -3.753603    1.962083    1.969750
 C   -1.268501   -0.893244    2.140392
 C   -0.042687   -0.359834    2.542546
 C    2.381837   -3.207060    1.727560
 N    3.561554   -2.471341    1.305837
 C    4.579269   -2.247563    2.198534
 C    5.689936   -1.551069    1.916669
 C    5.953553   -0.926733    0.592443
 C    4.803847   -1.232173   -0.367958
Cl   -0.754542   -2.037456   -2.459596
 N   -6.510883   -0.812043   -1.670423
 C   -7.502359   -1.703161   -2.244664
 C   -6.929762    0.177181   -0.744560
 C   -7.662901   -0.161437    0.336950
 C   -8.015019    0.854531    1.373328
 C   -6.573965    1.579219   -0.967319
 C   -6.142195    2.113510   -2.205607
 C   -5.781340    3.437659   -2.324990
 C   -5.834816    4.279325   -1.210856
 C   -6.254754    3.783558    0.009209
 C   -6.652002    2.447056    0.147041
 N   -7.083465    1.969423    1.379275
 C   -6.222063    2.162745    2.542212
 C   -4.916172    1.380464    2.482348
 C   -4.864346    0.034609    2.853921
 C   -2.523179   -0.105824    2.247991
 C   -1.289632   -2.193767    1.629121
 C   -0.114232   -2.921070    1.494683
 C    1.126130   -1.099007    2.432960
 C    1.111258   -2.383211    1.890173
 C    3.669088   -1.961604    0.008033
 C    2.644037   -2.172460   -0.937160
 C    2.757754   -1.680618   -2.224947
 C    3.891849   -0.968282   -2.608229
 C    4.894562   -0.754517   -1.677772
 N    6.257785    0.509749    0.715137
 C    5.135401    1.375775    1.007056
 C    7.453602    1.048684    0.241842
 C    7.493718    2.340841   -0.306240
 C    8.682792    2.888510   -0.768620
 C    9.860393    2.159899   -0.679027
Cl   11.352877    2.846088   -1.252805
 C    9.851161    0.885044   -0.126724
 C    8.660852    0.335444    0.324927
 H   -5.449810   -2.262907   -3.626789
 H   -3.061537   -2.764599   -3.964413
 H   -2.097504   -0.519109   -0.442748
 H   -4.464780   -0.008391   -0.076778
 H   -3.675929   -1.745457    3.026338
 H   -1.687585    1.716651    1.454158
 H   -3.768556    2.998091    1.634448
 H   -0.010865    0.643831    2.962189
 H    2.633157   -3.689507    2.679438
 H    2.193085   -4.024226    1.019767
 H    4.432151   -2.686848    3.181588
 H    6.440380   -1.399117    2.683747
 H    6.865318   -1.367606    0.156449
 H   -7.237337   -2.755073   -2.075624
 H   -8.471401   -1.506523   -1.779663
 H   -7.610308   -1.542073   -3.327200
 H   -8.036983   -1.170489    0.464672
 H   -8.030829    0.385013    2.370723
 H   -9.047218    1.224179    1.202126
 H   -6.100074    1.459231   -3.071113
 H   -5.452941    3.826789   -3.285490
 H   -5.543898    5.323143   -1.297322
 H   -6.307528    4.441919    0.873791
 H   -6.006743    3.232437    2.643441
 H   -6.792784    1.877475    3.434890
 H   -5.755687   -0.461130    3.235719
 H   -2.232262   -2.622287    1.292367
 H   -0.154221   -3.922819    1.071151
 H    2.060339   -0.661740    2.772453
 H    1.749249   -2.725060   -0.665085
 H    1.959994   -1.861070   -2.939778
 H    3.990034   -0.583865   -3.619488
 H    5.782127   -0.201994   -1.978624
 H    4.458289    0.835574    1.674457
 H    4.567076    1.657136    0.105010
 H    5.473664    2.281442    1.521043
 H    6.581375    2.921461   -0.383343
 H    8.693888    3.888251   -1.193404
 H   10.773841    0.316145   -0.058393
 H    8.685541   -0.649723    0.780010
