54 
5w85_ligand_ani.xyz
 C   -1.099925    1.849524    0.512843
 C    1.429859    3.977816   -0.741757
 C    1.158832    2.674115   -0.320463
 C   -1.562786    3.184194    1.091875
 C    2.609174    4.619050   -0.371033
 C    3.537466    3.962484    0.429122
 C    3.282722    2.660453    0.853752
 C    2.103626    2.024409    0.478649
 C    1.201120   -2.859165    0.497638
 C    1.602020   -1.937057   -0.466665
 C   -7.149951   -0.176213   -0.728153
 C    3.500603   -3.157882    1.224098
 C   -3.492534   -0.977906   -0.205702
 C   -3.445743   -2.367755   -0.173583
 N   -2.377015   -3.104836    0.115831
 C   -1.245796   -2.440017    0.393003
 C   -1.181374   -1.050544    0.469134
 C   -2.303153   -0.289475    0.147532
 N   -2.290484    1.086795    0.189448
 N   -0.142912   -3.224755    0.667686
 C   -4.704131   -0.232324   -0.650809
 N   -5.901035   -0.846312   -0.431923
 O   -4.642318    0.875171   -1.186749
 C   -0.142147    1.989526   -0.680608
 O   -2.342775    2.977934    2.242940
 C    2.958899   -1.648659   -0.581250
 C    3.918311   -2.223473    0.264285
 C    2.162196   -3.476479    1.320461
 S    3.750996   -0.572070   -1.687511
 C    5.268846   -0.960587   -0.917713
 N    5.226958   -1.807788    0.050812
 H   -0.592743    1.320920    1.328213
 H    0.707361    4.499609   -1.367378
 H   -0.705497    3.798773    1.385055
 H   -2.124508    3.736443    0.314933
 H    2.800925    5.634561   -0.709467
 H    4.458320    4.461168    0.720796
 H    4.003458    2.141550    1.482009
 H    1.919873    1.000823    0.809100
 H    0.881697   -1.483277   -1.138853
 H   -6.955229    0.561643   -1.506597
 H   -7.560646    0.346211    0.144962
 H   -7.884229   -0.900343   -1.092060
 H    4.240562   -3.620738    1.870039
 H   -4.331389   -2.944243   -0.441377
 H   -0.259750   -0.577947    0.790220
 H   -2.944927    1.503908   -0.469157
 H   -0.363990   -4.206003    0.765594
 H   -5.921379   -1.622316    0.210710
 H    0.060224    0.982347   -1.067833
 H   -0.653663    2.537894   -1.483453
 H   -2.967419    2.274242    2.010619
 H    1.827381   -4.205331    2.055296
 H    6.184980   -0.497554   -1.271638
