27 
5w88_ligand_ani.xyz
 C   -2.583767    2.552424   -0.091480
 C    3.842419    0.806299    0.210569
 C    3.405684    0.448628   -1.061534
 C    3.112201    0.403916    1.325535
 C   -3.325111   -1.166230    0.167909
 C   -3.502289    0.212775    0.121641
 C    2.246131   -0.305085   -1.220541
 C    1.951253   -0.349004    1.171787
 C   -2.057563   -1.717087    0.051223
 C   -1.130258    0.498093   -0.169401
 C   -2.401765    1.055124   -0.045965
 C    1.509604   -0.705722   -0.105715
 C   -0.945021   -0.885601   -0.115853
 N    0.320186   -1.467853   -0.287252
 H   -3.285077    2.843608   -0.882227
 H   -2.987253    2.932459    0.854666
 H   -1.636210    3.065543   -0.279841
 H    4.748328    1.394293    0.332895
 H    3.968570    0.756401   -1.939892
 H    3.446553    0.677249    2.323728
 H   -4.184500   -1.820408    0.295589
 H   -4.497526    0.640961    0.214980
 H    1.897429   -0.586845   -2.211764
 H    1.379499   -0.655520    2.046056
 H   -1.921411   -2.796531    0.077317
 H   -0.270908    1.151251   -0.301960
 H    0.372095   -2.418659    0.052158
