29 
5w8i_ligand_ani.xyz
 C    5.372681   -0.754985   -0.104824
 C    5.049668    0.556526    0.223439
 C    3.733188    0.967381    0.243842
 C    2.719891    0.056841   -0.066170
 C    3.049827   -1.262601   -0.381110
 C   -0.559876    1.662712   -0.131471
 C    0.801267    1.809424   -0.154622
 C   -2.063404   -0.260028    0.032945
 O   -5.654129    1.507932   -0.166965
 F    6.659543   -1.118969   -0.120586
 C    4.378334   -1.668089   -0.406282
 F    6.038155    1.409971    0.517163
 C    1.305568    0.483331   -0.067621
 N    0.336443   -0.415445    0.000675
 N   -0.810835    0.317367   -0.030617
 O   -1.515850    2.586465   -0.193173
 S   -2.262933   -1.961077    0.232612
 C   -3.976745   -1.704875    0.209047
 C   -4.255945   -0.380746    0.050453
 N   -3.149418    0.433592   -0.044659
 C   -5.575617    0.318992   -0.034767
 O   -6.684207   -0.447915    0.043313
 H    3.509415    1.993369    0.515848
 H    2.255573   -1.968098   -0.604018
 H    1.345924    2.736544   -0.264128
 H    4.658674   -2.686097   -0.654654
 H   -2.401115    2.153388   -0.166318
 H   -4.645005   -2.550452    0.317824
 H   -6.468688   -1.384180    0.144123
