58 
5w92_ligand_ani.xyz
 C    5.802745   -0.082191    1.537817
 C   -7.467984   -0.606462   -0.014878
 C   -7.862993   -1.236456   -1.189574
 C   -8.895428   -0.678631   -1.935534
 C   -9.522724    0.486990   -1.500404
 C   -9.123249    1.098360   -0.313750
 C   -8.091851    0.550020    0.440091
 C   -0.196447    2.626651   -0.070520
 C    1.126414    2.995800   -0.629438
 C    1.766310   -1.855565   -1.679032
 C    2.029803   -2.479509   -0.307575
 C    5.755433   -0.236632    0.150932
 C    3.407592   -1.938679    0.085627
 C    6.900316   -0.772381   -0.439318
 C    7.990592   -1.135812    0.347174
 C    6.935855   -0.463503    2.250770
 C    4.562185    0.158130   -0.685112
 C    2.359322   -0.451789   -1.556189
 C    1.385306    0.592819   -1.027820
 C   -0.557359    1.298864   -0.072047
 C   -1.895022    0.904109    0.493718
 C   -3.430420   -0.932876    0.971377
 C   -4.676843   -0.485031    0.206418
 N    3.480159   -0.652297   -0.620015
 N    0.215535    0.275028   -0.554233
 N   -2.217058   -0.394068    0.392571
 N    1.836758    1.884289   -1.074233
 N    8.010978   -0.984862    1.668276
 O    4.596095    1.149104   -1.409245
 O   -2.638231    1.747480    1.014519
 O   -6.255911   -0.809956    2.297413
 O   -6.028260   -2.706765    0.619329
 O   -0.924277    3.625831    0.391866
 O    1.576438    4.118598   -0.701753
 S   -6.115837   -1.279989    0.921292
Cl    4.466023    0.593113    2.414736
Cl    6.984078   -1.023230   -2.149763
 H   -7.368909   -2.153827   -1.498200
 H   -9.213896   -1.155595   -2.858136
 H  -10.329083    0.919791   -2.087640
 H   -9.618554    2.003501    0.026271
 H   -7.769904    0.996314    1.377166
 H    0.707540   -1.833945   -1.944728
 H    2.308671   -2.398615   -2.461136
 H    1.280654   -2.116755    0.403669
 H    1.993872   -3.571791   -0.320376
 H    3.514958   -1.793797    1.163134
 H    4.221906   -2.591674   -0.251859
 H    8.874992   -1.562123   -0.120968
 H    6.960097   -0.340362    3.330886
 H    2.767389   -0.079784   -2.500590
 H   -3.364275   -2.023097    0.949442
 H   -3.524052   -0.614601    2.014130
 H   -4.629372   -0.779217   -0.846481
 H   -4.817361    0.596332    0.281580
 H   -1.533641   -1.008351   -0.028016
 H    2.792117    2.050457   -1.392164
 H   -1.752229    3.220625    0.758805
