31 
5wbo_ligand_xtb.xyz
 N   -1.156784    0.192269    0.624160
 C    1.950458    1.665268   -0.020700
 N    0.341626   -3.362559    0.056512
 C    0.579982   -2.237086    0.106035
 C    0.997661   -0.896586    0.113162
 C   -2.954471   -0.987823   -0.508178
 C   -2.001425   -0.976058    0.694802
 C    3.282261   -1.853559   -0.322519
 C    2.369211   -0.685373   -0.127145
 C    2.844997    0.610726   -0.185353
 N    0.668256    1.471052    0.212064
 C    0.159596    0.235584    0.303811
 O   -3.728492    0.188859   -0.550544
 C   -2.910654    1.336869   -0.606003
 C   -1.957078    1.401114    0.592565
 C    2.411263    3.086380   -0.100158
 H   -3.659138   -1.816866   -0.433520
 H   -2.369153   -1.090965   -1.435246
 H   -2.595663   -0.905976    1.614216
 H   -1.418498   -1.891265    0.722873
 H    3.246740   -2.514592    0.542861
 H    2.971195   -2.438502   -1.187811
 H    4.306033   -1.519704   -0.471745
 H    3.890263    0.805853   -0.366068
 H   -3.587862    2.192114   -0.609712
 H   -2.321629    1.333949   -1.536339
 H   -1.293024    2.259604    0.514484
 H   -2.538752    1.457069    1.518570
 H    3.152452    3.281885    0.673005
 H    2.874483    3.277469   -1.066609
 H    1.567999    3.756983    0.034323
