45 
5wbz_ligand_ani.xyz
 N   -1.580507   -1.666847   -0.644170
 C    1.233811    3.089198    0.515564
 N   -0.284890    0.242048   -0.750458
 C    2.060112    0.217858   -0.270996
 C    0.851693    0.900489   -0.559331
 C    0.798058   -1.831466   -0.222577
 C   -3.700666   -1.106379    0.186810
 C    2.005622   -1.174384   -0.113300
 C    3.269328    0.983089   -0.204877
 C   -2.186512    4.401462   -0.097365
 C   -1.211206    3.262325    0.129417
 C   -0.087885    3.597586    1.144746
 N    0.831759    2.279635   -0.657450
 C   -0.399547    2.908460   -1.136077
 C   -0.345196   -1.076632   -0.545697
 C   -1.938127   -2.731502    0.305726
 C   -3.457084   -2.583672    0.516290
 C   -2.757992   -0.877314   -0.994717
 O   -3.283288   -0.364293    1.313254
 O   -4.224027   -3.455727   -0.292794
 C    3.263398   -1.942541    0.221484
 F    3.015529   -3.256497    0.365488
 F    4.190423   -1.803789   -0.739176
 F    3.813171   -1.503322    1.365116
 N    4.220515    1.643559   -0.161064
 O   -1.961543    2.131237    0.565980
 H    1.833835    2.504476    1.216338
 H    1.848766    3.923492    0.161235
 H    0.733996   -2.902969   -0.072419
 H   -4.755005   -0.919485   -0.063131
 H   -2.929721    4.121411   -0.850971
 H   -2.707081    4.645990    0.833588
 H   -1.656196    5.294456   -0.444694
 H   -0.300068    3.108327    2.099491
 H   -0.037330    4.675024    1.330978
 H   -0.127296    3.829686   -1.667724
 H   -0.948824    2.246932   -1.806691
 H   -1.404381   -2.592722    1.255918
 H   -1.694324   -3.727658   -0.085931
 H   -3.745195   -2.796268    1.546315
 H   -2.512221    0.174944   -1.128398
 H   -3.209138   -1.242681   -1.926897
 H   -3.179857    0.568826    1.060980
 H   -3.915542   -3.380639   -1.204934
 H   -1.410651    1.343365    0.373975
