27 
5wcl_ligand_ani.xyz
 C    4.525097   -1.021751    0.596904
 C   -4.293629    0.406127    0.254812
 C   -4.001047   -0.769840   -0.430906
 C   -3.252636    1.139029    0.814218
 C    2.201871    1.721772   -0.639282
 C    3.352778    1.052518   -0.244710
 C   -2.687827   -1.202376   -0.556898
 C   -1.931789    0.720543    0.684925
 C    0.961730    1.093501   -0.617035
 C    2.040086   -0.909945    0.184709
 C    3.279945   -0.281079    0.172767
 C   -1.634768   -0.452688   -0.018064
 C    0.871457   -0.233781   -0.188866
 N   -0.333568   -0.941478   -0.165597
 H    5.261697   -1.054835   -0.214217
 H    5.005125   -0.531863    1.452014
 H    4.296685   -2.051842    0.884671
 H   -5.320982    0.743721    0.357434
 H   -4.801694   -1.361071   -0.868301
 H   -3.462706    2.055580    1.359439
 H    2.263214    2.755863   -0.969519
 H    4.315099    1.558365   -0.262944
 H   -2.465400   -2.124804   -1.090067
 H   -1.133133    1.296130    1.144846
 H    0.073581    1.625054   -0.946550
 H    1.967874   -1.949274    0.504375
 H   -0.251986   -1.942861   -0.267440
