19 
5wcm_ligand_ani.xyz
 S   -2.499001   -0.098717    0.105215
 C    2.002263    0.004559   -0.003948
 N   -2.957501    1.009797   -1.062680
 O   -2.909521   -1.427071   -0.324330
 C    1.314407    1.212770    0.020442
 O   -2.946309    0.455093    1.373707
 C   -0.072119    1.189641    0.032155
 C   -0.730678   -0.039980    0.021521
 C   -0.030148   -1.245493   -0.004761
 C    1.355839   -1.226160   -0.017337
 N    3.470045    0.028990   -0.014116
 O    4.018177    1.117817   -0.001498
 O    4.053645   -1.041052   -0.034001
 H   -3.293839    0.535586   -1.894899
 H   -3.667259    1.621799   -0.671129
 H    1.868305    2.143104    0.028467
 H   -0.635680    2.117815    0.045973
 H   -0.578204   -2.181133   -0.016845
 H    1.937569   -2.139524   -0.036897
