63 
5web_ligand_ani.xyz
 C   -2.103381   -1.682537    0.956051
 C    7.324003    2.778868   -0.442435
 C    7.338145    2.923828   -1.828163
 C    6.892474    1.888373   -2.647153
 C    6.427337    0.704490   -2.085448
 C   -2.896743   -2.653742    0.090508
 C   -2.037084   -3.734769   -0.569788
 C   -1.624666   -3.105659   -1.900680
 C   -2.876970   -2.344519   -2.339160
 C   -4.628602   -1.232354   -0.911877
 C   -5.199240   -0.555067   -2.150072
 C   -0.194707   -0.746696    1.774134
 C   -4.279151    1.867844   -1.204971
 C   -5.472792    2.514463   -0.873660
 C   -5.561085    3.349155    0.232612
 C   -4.446114    3.544571    1.038353
 C   -3.250646    2.900305    0.744972
 C   -3.176574    2.055714   -0.360898
 C   -0.857367    0.120608    2.612174
 C   -2.340885    0.092909    2.621717
 C    1.313028   -0.747253    1.759498
 C    3.331135   -1.768988    0.843859
 C    4.012159   -0.573410    0.176442
 C    6.408349    0.581097   -0.700725
 C    6.860054    1.600196    0.130456
 N   -2.858145   -0.849769    1.740642
 N   -0.801874   -1.649030    0.940174
 N    1.893481   -1.604666    0.907129
 N   -3.509950   -1.972825   -1.066490
 O   -3.050193    0.799522    3.309596
 O   -0.290438    0.998315    3.423189
 O    1.953781    0.010292    2.500904
 O   -5.168120   -1.076306    0.184391
 O    6.323501   -1.008924    1.378464
 O    5.933447   -1.989184   -0.934962
 S    5.767723   -0.905984    0.031309
 S   -4.208253    0.879266   -2.687262
Cl   -1.676736    1.228242   -0.646816
 H    7.677527    3.585672    0.193402
 H    7.701005    3.847757   -2.272146
 H    6.909760    2.003446   -3.727225
 H    6.090932   -0.124019   -2.703067
 H   -3.696728   -3.070670    0.710795
 H   -1.185814   -4.020540    0.051626
 H   -2.653430   -4.625055   -0.737770
 H   -1.299623   -3.840489   -2.641057
 H   -0.808483   -2.395255   -1.731943
 H   -2.651685   -1.451704   -2.930345
 H   -3.543820   -2.989680   -2.929459
 H   -5.253489   -1.228404   -3.010333
 H   -6.212460   -0.229568   -1.904367
 H   -6.343684    2.357473   -1.506695
 H   -6.499569    3.844585    0.462893
 H   -4.507194    4.197053    1.905619
 H   -2.375795    3.043334    1.374013
 H    3.548468   -2.674577    0.272895
 H    3.739196   -1.890133    1.851686
 H    3.889397    0.334617    0.772799
 H    3.627897   -0.405837   -0.834356
 H    6.850607    1.453087    1.207132
 H   -3.870018   -0.844285    1.588659
 H    1.285405   -2.208206    0.371174
 H    0.690078    0.878511    3.319880
