33 
5wex_ligand_dft.xyz
 C   -5.061750    0.933651    0.001416
 C   -3.522634   -0.926454    0.031996
 C    1.203581   -0.704247   -1.015259
 C    1.361836    0.425120    1.119589
 C   -6.139928    0.062633    0.050046
 C   -4.604361   -1.801310    0.075642
 C    2.577212   -0.899469   -1.014728
 C    2.734511    0.227816    1.125760
 C   -3.746700    0.452490   -0.007435
 C    0.587795   -0.024696    0.040951
 C   -5.894653   -1.301583    0.084976
 C    3.333970   -0.425353    0.052807
 C   -1.364536    1.259043   -0.071953
 N    5.689403    0.843230   -0.340027
 N   -2.723950    1.424603   -0.068983
 N   -0.801775    0.125287    0.041204
 O    5.525320   -0.908700    1.427648
 O    5.404568   -1.607029   -1.014402
 F   -6.932605   -2.151762    0.130529
 S   -0.434249    2.806277   -0.255759
 S    5.091239   -0.674807    0.059163
 H   -5.249126    2.004463   -0.032694
 H   -2.511349   -1.306208    0.035427
 H    0.591872   -1.072120   -1.832104
 H    0.873934    0.911637    1.958685
 H   -7.159861    0.430080    0.058789
 H   -4.444861   -2.873433    0.107568
 H    3.065256   -1.427783   -1.826554
 H    3.336775    0.565909    1.962354
 H    6.482719    1.053495    0.258529
 H    5.943413    0.885110   -1.322406
 H   -3.049124    2.373500    0.024680
 H   -1.368952    3.425829   -0.995662
