25 
5wg8_ligand_ani.xyz
 C   -0.115763    0.791579   -0.306209
 C   -1.250289   -1.491591    0.345313
 C   -0.131966   -0.773428   -0.400981
 C    1.228250   -1.102529    0.247560
 C    1.213956    1.019494    0.443965
 C    2.367918   -0.710561   -0.709596
 C    2.375426    0.831348   -0.544959
 C   -1.295517    1.469832    0.397061
 O    1.329106   -0.127105    1.288288
 O   -2.487025   -1.273605   -0.333148
 O   -2.456289    1.496550   -0.390959
 H   -0.081593    1.226141   -1.314815
 H   -1.032208   -2.569985    0.380191
 H   -1.307135   -1.130151    1.380911
 H   -0.183441   -1.097522   -1.446971
 H    1.301198   -2.103008    0.682855
 H    1.251888    1.924694    1.056434
 H    2.179186   -1.042449   -1.735890
 H    3.315018   -1.149372   -0.381831
 H    3.315352    1.178928   -0.105726
 H    2.216090    1.377413   -1.480170
 H   -1.476177    1.012668    1.382240
 H   -1.028126    2.517164    0.586503
 H   -3.193813   -1.685409    0.179043
 H   -2.714661    0.569297   -0.529143
