63 
5wg9_ligand_ani.xyz
 C   -0.042335   -3.142767   -0.184659
 C   -0.018280    2.633637   -0.737271
 C   -0.682776    1.648382   -1.457200
 C   -2.075151    1.565474   -1.447553
 C   -0.353762   -1.474379    1.578852
 C    0.316254   -0.840710    2.792736
 C    2.593893   -0.362348    2.016973
 C    3.655783    0.640371    1.589697
 C    4.516172    0.086383    0.445346
 C    3.728926   -0.172564   -0.817607
 C    3.276769   -1.461800   -1.120122
 C   -1.431522   -2.811566   -0.570968
 C    2.565787   -1.734363   -2.281612
 C    2.281609   -0.705183   -3.175072
 C    2.691656    0.589652   -2.892234
 C    3.395458    0.842491   -1.717756
 C    1.001355    1.499603    2.591663
 C   -0.479133    1.418988    2.967902
 C   -0.617964    0.042119    3.621218
 C   -2.081890   -1.826867    0.136200
 C   -3.447572   -1.372894   -0.316415
 C   -5.197407    0.306528   -0.010986
 C   -4.957439    1.412312   -1.041028
 C   -2.806577    2.471046   -0.677901
 C   -2.141468    3.476750    0.032934
 C   -0.759288    3.551427    0.007085
 N   -4.001363   -0.388420    0.412836
 N   -1.568770   -1.167805    1.222384
 N    1.384263    0.097215    2.403723
 N    0.406818   -2.380370    0.886632
 O    0.661995   -3.975797   -0.724361
 O   -1.927831   -3.487792   -1.597341
 O   -4.165834    2.481011   -0.548926
 O   -3.990534   -1.870465   -1.310727
 O    2.846437   -1.572724    2.001931
Cl    3.852840    2.495688   -1.392595
 H    1.069732    2.693950   -0.763874
 H   -0.105707    0.932881   -2.039832
 H   -2.564750    0.802492   -2.045190
 H    0.767825   -1.648944    3.378046
 H    4.290462    0.839738    2.464633
 H    3.209496    1.593816    1.299615
 H    5.328511    0.791138    0.238391
 H    4.967896   -0.853267    0.778143
 H    3.503097   -2.260536   -0.417454
 H    2.227391   -2.746880   -2.481158
 H    1.733542   -0.905335   -4.091657
 H    2.454424    1.413527   -3.560479
 H    1.143521    2.065359    1.664869
 H    1.602640    1.968494    3.381444
 H   -0.798785    2.239534    3.615849
 H   -1.077794    1.443904    2.049959
 H   -1.644772   -0.330414    3.622362
 H   -0.257374    0.066555    4.655721
 H   -5.677722    0.730648    0.876200
 H   -5.871195   -0.432051   -0.454197
 H   -5.920766    1.868027   -1.291862
 H   -4.541040    0.989319   -1.962699
 H   -2.738156    4.177800    0.608365
 H   -0.256901    4.331325    0.576879
 H   -3.433973   -0.004852    1.157091
 H    1.389268   -2.485578    1.152131
 H   -2.824253   -3.103865   -1.774162
