42 
5wh5_ligand_dft.xyz
 F    4.100290    2.577478    0.300642
 C    3.197082    1.594519    0.207702
 F    2.793258    1.271958    1.467202
 O    2.137370    2.129107   -0.496300
 C    0.920153    1.496745   -0.454839
 C    0.774695    0.128681   -0.735637
 O    1.905298   -0.546836   -1.073043
 C    2.079638   -1.882194   -0.596850
 C    3.510862   -2.255464   -0.959578
 O    4.295778   -1.639696    0.037919
 C    3.622450   -1.863733    1.270433
 C    2.113158   -1.944609    0.938787
 C   -0.195295    2.275799   -0.182874
 C   -1.460371    1.701477   -0.152990
 C   -1.612944    0.334680   -0.390244
 C   -0.488034   -0.441442   -0.683447
 C   -2.941593   -0.361087   -0.362668
 O   -3.011827   -1.550986   -0.609499
 C   -4.180002    0.460421   -0.044196
 C   -5.472928   -0.353151    0.062588
 C   -6.685696    0.579340    0.018918
 C   -5.489729   -1.210030    1.331167
 H    3.641230    0.710444   -0.246720
 H    1.337431   -2.546627   -1.050426
 H    3.629066   -3.351165   -0.942140
 H    3.816371   -1.869913   -1.933546
 H    3.871491   -1.035962    1.935496
 H    3.975565   -2.801567    1.721922
 H    1.548671   -1.118547    1.376249
 H    1.671076   -2.878406    1.295847
 H   -0.046880    3.330842    0.019030
 H   -2.317032    2.328140    0.069912
 H   -0.636176   -1.497631   -0.880232
 H   -4.008832    1.017461    0.887984
 H   -4.273019    1.222499   -0.831971
 H   -5.513139   -1.026010   -0.801943
 H   -6.663113    1.292185    0.852988
 H   -7.618791    0.010779    0.093961
 H   -6.716906    1.154814   -0.913419
 H   -6.413944   -1.795074    1.390202
 H   -5.439117   -0.577268    2.227030
 H   -4.647502   -1.906327    1.348949
