42 
5wh6_ligand_ani.xyz
 C   -3.198474    1.855305    0.179902
 O   -1.936564   -0.490171   -1.072129
 C   -0.792640    0.179967   -0.743084
 C    0.467907   -0.408165   -0.707929
 C    1.600875    0.356219   -0.417473
 C    1.471119    1.721790   -0.177919
 C    0.216388    2.318975   -0.220018
 C   -2.090121   -1.809353   -0.548845
 C   -3.690519   -1.847472    1.213776
 C   -2.178257   -1.833969    0.985029
 C    5.435961   -0.417101    0.095506
 C    6.670754    0.483386    0.130130
 F   -2.836005    1.212056    1.320262
 F   -3.818869    2.986125    0.532624
 O   -2.111383    2.214492   -0.568783
 C   -0.911319    1.556249   -0.482271
 O   -4.200511   -2.652729    0.166073
 C   -3.475278   -2.307324   -0.999297
 C    2.921583   -0.347649   -0.395547
 O    2.985783   -1.526517   -0.694926
 C    4.169692    0.436057   -0.024293
 C    5.397747   -1.318938    1.329924
 H   -3.888626    1.220256   -0.386672
 H    0.610147   -1.462642   -0.925779
 H    2.345481    2.331654    0.034434
 H    0.085666    3.382440   -0.046166
 H   -1.285254   -2.443945   -0.931311
 H   -3.987515   -2.298844    2.164458
 H   -4.097728   -0.827929    1.153357
 H   -1.730022   -2.756816    1.366293
 H   -1.681710   -0.977982    1.445914
 H    5.482632   -1.055567   -0.796016
 H    7.589996   -0.108624    0.199524
 H    6.737932    1.105752   -0.769173
 H    6.636818    1.151592    1.000526
 H   -3.957935   -1.480638   -1.536133
 H   -3.439837   -3.186301   -1.650131
 H    4.318024    1.204991   -0.797803
 H    3.988596    0.984680    0.912740
 H    5.335298   -0.716261    2.245759
 H    4.534400   -1.989098    1.300182
 H    6.306396   -1.928808    1.392605
