32 
5wi0_ligand_ani.xyz
 N   -1.433258   -0.602977   -0.509005
 C   -2.720462    1.358604   -0.453362
 C   -1.507049    2.132346   -0.151658
 C   -0.297753    0.132028   -0.240555
 C    2.170895   -0.209546    0.011207
 C    2.584649    1.093285    0.296194
 C    4.899349    0.365912    0.345176
 F    2.754051   -2.461581   -0.363107
 C    3.160807   -1.197481   -0.092721
 C    4.504422   -0.939955    0.064524
 C    3.940646    1.365408    0.458839
 N    0.847795   -0.630384   -0.174026
 N   -0.304300    1.408680   -0.065705
 O   -1.531470    3.337407    0.016948
 C   -2.666354    0.023290   -0.614476
 C   -3.847858   -0.874784   -0.840946
 C   -4.124278   -1.833047    0.330514
 C   -4.330501   -1.105925    1.658083
 H   -1.385105   -1.603071   -0.632639
 H   -3.662813    1.889796   -0.521705
 H    1.841385    1.876420    0.384321
 H    5.951987    0.598713    0.474457
 H    5.216679   -1.754245   -0.032881
 H    4.247594    2.384867    0.677873
 H    0.768738   -1.623376   -0.342735
 H   -3.700516   -1.445989   -1.766102
 H   -4.723334   -0.236039   -0.998481
 H   -3.298288   -2.549042    0.425388
 H   -5.012930   -2.427031    0.086215
 H   -3.417123   -0.583832    1.967279
 H   -5.125068   -0.355108    1.573442
 H   -4.606652   -1.805133    2.454180
