28 
5wi1_ligand_ani.xyz
 N   -0.767611   -0.602332    0.322888
 C    4.208392   -0.371653    0.424607
 C    3.533441   -1.530125   -0.294434
 C    2.003994   -1.411833   -0.192518
 C   -2.132383   -0.267744    0.156500
 C   -2.642053    1.028196    0.282629
 C   -4.872889    0.201828   -0.138909
 C    1.581571   -0.039374    0.371082
 C    0.129978    0.271227    0.126365
 C    2.438584    1.102081   -0.151243
 O    3.768994    0.887045   -0.090743
 O    2.013857    2.150661   -0.559304
 C   -4.007033    1.253865    0.135580
 C   -4.366158   -1.091418   -0.262530
 C   -3.006732   -1.324047   -0.113523
 H    4.022334   -0.411067    1.506537
 H    5.288986   -0.375648    0.269006
 H    3.888281   -2.473853    0.134262
 H    3.845217   -1.516511   -1.344685
 H    1.546739   -1.546077   -1.177093
 H    1.576256   -2.176907    0.457160
 H   -1.978005    1.858305    0.511584
 H   -5.937535    0.385333   -0.254360
 H    1.739252   -0.061464    1.461152
 H   -0.078326    1.283345   -0.246358
 H   -4.391437    2.267080    0.233364
 H   -5.035585   -1.922078   -0.473336
 H   -2.587968   -2.321798   -0.198713
