12 
5wic_ligand_ani.xyz
 C    1.449437    0.126487    0.001149
 C   -0.027030    0.145733    0.000750
 C   -0.902526    1.184082   -0.007468
 C   -2.206881    0.601839   -0.005047
 C   -2.020305   -0.742553    0.005289
 O    2.091823    1.145426    0.010824
 O    2.030423   -1.085884   -0.010897
 O   -0.699256   -1.045320    0.007999
 H   -0.628662    2.231161   -0.014895
 H   -3.156130    1.118939   -0.011164
 H   -2.707331   -1.576545    0.012250
 H    1.352037   -1.780863   -0.017631
