12 
5wic_ligand_xtb.xyz
 C    1.447067    0.134983    0.000024
 C   -0.024108    0.139444    0.001053
 C   -0.912714    1.184742    0.002025
 C   -2.198817    0.606203    0.000395
 C   -2.004974   -0.743484   -0.001539
 O    2.106998    1.137295   -0.002859
 O    2.007277   -1.087083    0.001939
 O   -0.700266   -1.040419   -0.000842
 H   -0.658207    2.223797    0.003853
 H   -3.137873    1.119756    0.000678
 H   -2.693366   -1.565908   -0.004382
 H    1.338646   -1.787334    0.002194
