14 
5wii_ligand_xtb.xyz
 C   -2.306839   -0.437650   -0.117914
 O   -2.861838   -0.709591   -1.138319
 O   -2.882258   -0.640914    1.079754
 C   -0.925887    0.160510   -0.056024
 C    0.193181   -0.660363   -0.042613
 C    1.438124   -0.039124   -0.007741
Cl    2.864271   -0.993016    0.018184
 N    1.608794    1.265554    0.011043
 C    0.537635    2.038999   -0.008034
 C   -0.755647    1.543538   -0.037401
 H   -2.320971   -0.382079    1.822859
 H    0.108064   -1.734574   -0.067598
 H    0.734471    3.101823    0.002157
 H   -1.606351    2.205809   -0.056974
