22 
5wio_ligand_ani.xyz
 O    4.129445   -0.327066    0.071471
 C    2.934630   -0.918850    0.126392
 O    2.791608   -2.107531    0.258723
 C    1.768616    0.037267    0.008090
 C    0.475476   -0.459096    0.046076
 N    2.078045    1.328713   -0.131703
 C    1.060527    2.186323   -0.235122
 C   -0.274776    1.802065   -0.199452
 C   -0.578209    0.447169   -0.056053
 N   -1.922944    0.000715   -0.016780
 C   -2.401686   -1.154913   -0.598305
 C   -3.743023   -1.244298   -0.342878
 C   -4.103432   -0.101631    0.433652
 C   -2.968763    0.642105    0.614227
 H    3.964740    0.630136   -0.036966
 H    0.321712   -1.525426    0.178039
 H    1.321780    3.235635   -0.349479
 H   -1.060810    2.542077   -0.308938
 H   -1.735586   -1.785637   -1.169626
 H   -4.402193   -2.035342   -0.677100
 H   -5.087234    0.137114    0.817203
 H   -2.792700    1.555373    1.164942
