21 
5wip_ligand_ani.xyz
 C   -1.890663   -0.139394    0.025114
 C   -4.062168    0.023543    0.063555
 C   -3.794998   -1.305450    0.047485
 C   -2.370289   -1.417403    0.023119
 C   -0.534272    0.420575   -0.003752
 C    0.807233    2.262699   -0.151059
 C    1.971830    1.499874   -0.090860
 C    1.848167    0.119686   -0.000775
 C    0.571730   -0.428966    0.062419
 C    3.107561   -0.705745    0.068507
 N   -0.418337    1.748697   -0.111708
 O   -2.919786    0.744114    0.048302
 O    4.150252   -0.271877    0.476453
 O    3.007969   -1.979800   -0.361341
 H   -4.975968    0.599112    0.083687
 H   -4.521188   -2.106719    0.050618
 H   -1.797707   -2.334934   -0.004170
 H    0.864483    3.345281   -0.232419
 H    2.955121    1.956605   -0.112281
 H    0.421744   -1.496307    0.210843
 H    2.149599   -2.119930   -0.784156
