63 
5wj6_ligand_xtb.xyz
 N    6.208201   -0.191604   -0.169472
 C    6.687769    0.244664   -1.372037
 C    7.900878    2.086507   -0.256908
 C    7.049775    4.257817    0.337907
 C    8.426704    1.958735    1.022651
 C   -4.977088   -1.711673   -0.411198
 C   -6.243415    0.329935   -0.355778
 C   -0.186005   -3.899112   -0.218490
 C   -1.257512   -4.269839    0.809728
 N   -1.967725   -3.085358    1.248202
 C   -1.106315   -2.097942    1.858343
 C   -0.038858   -1.635788    0.864754
 C    0.758322   -2.849778    0.367225
 N    1.747898   -2.477890   -0.624227
 C    2.893316   -1.875731   -0.248811
 N    3.324611   -1.811041    0.968246
 N    4.517726   -1.223069    1.079061
 C    5.001815   -0.829175   -0.042608
 C    8.016228    0.971452   -1.260364
 C    7.208988    3.245072   -0.590066
 C    7.578432    4.123722    1.611209
 C    8.269103    2.973838    1.951027
 O    6.089866    0.061866   -2.407179
 S    3.993319   -1.158890   -1.442484
 C   -3.045010   -2.699330    0.534283
 N   -3.666726   -3.462212   -0.309123
 N   -4.757507   -2.903945   -0.834454
 N   -6.039531   -0.942993   -0.818626
 C   -7.486846    0.983982   -0.934853
 C   -7.580694    2.425002   -0.516579
 C   -7.898859    2.745929    0.796526
 C   -7.955061    4.067192    1.200527
 C   -7.695127    5.082054    0.295265
 C   -7.374947    4.769334   -1.014129
 C   -7.314508    3.446478   -1.416749
 O   -5.490937    0.842286    0.438654
 S   -3.805794   -1.107902    0.746374
 H    6.704666    0.004279    0.689126
 H    6.510284    5.153302    0.067863
 H    8.975182    1.066333    1.293591
 H   -0.679400   -3.495418   -1.105543
 H    0.374890   -4.786608   -0.510332
 H   -0.794498   -4.726863    1.688601
 H   -1.983864   -4.957106    0.377104
 H   -0.626666   -2.561639    2.725371
 H   -1.708067   -1.254790    2.201359
 H    0.638486   -0.928162    1.342303
 H   -0.522937   -1.141210    0.018665
 H    1.317690   -3.270894    1.209340
 H    1.404872   -2.260557   -1.547486
 H    8.267887    1.356408   -2.249285
 H    8.781474    0.254459   -0.955494
 H    6.793141    3.346600   -1.581956
 H    7.452829    4.913793    2.335999
 H    8.685617    2.863831    2.941247
 H   -6.668041   -1.376988   -1.479171
 H   -8.354570    0.425221   -0.571735
 H   -7.454659    0.898605   -2.023415
 H   -8.095597    1.955381    1.505762
 H   -8.200600    4.305553    2.224880
 H   -7.739394    6.114038    0.610458
 H   -7.167354    5.556559   -1.724042
 H   -7.058351    3.208049   -2.439763
