63 
5wj6_ligand_dft.xyz
 N    6.179003    0.662189   -0.383606
 C    6.721636    1.564870   -1.256816
 C    8.822008    1.389250    0.232798
 C    9.285452    1.323602    2.611274
 C    9.544450    0.202487    0.080388
 C   -5.012992   -0.725979    0.225137
 C   -6.347220    0.527965    1.842875
 C   -0.465837   -2.288472   -1.817825
 C   -1.387570   -3.336873   -1.187782
 N   -1.959204   -2.855305    0.068335
 C   -0.930220   -2.501688    1.045625
 C    0.005043   -1.418505    0.503770
 C    0.622084   -1.868506   -0.826968
 N    1.432689   -0.806764   -1.415334
 C    2.696976   -0.582458   -0.953210
 N    3.181505   -1.132293    0.122859
 N    4.461309   -0.709190    0.390826
 C    4.902349    0.132689   -0.481947
 C    8.143509    2.031566   -0.951118
 C    8.698050    1.940975    1.510926
 C   10.004751    0.143232    2.446914
 C   10.133253   -0.416508    1.178525
 O    6.109379    1.983601   -2.223884
 S    3.784951    0.538145   -1.765363
 C   -3.071131   -2.057654   -0.044934
 N   -3.724067   -1.882218   -1.158751
 N   -4.853914   -1.121898   -0.993483
 N   -6.087659    0.074409    0.578356
 C   -7.607793    1.374311    2.010963
 C   -8.332001    1.759107    0.745209
 C   -7.963653    2.906978    0.037733
 C   -8.598973    3.240964   -1.153872
 C   -9.611485    2.427922   -1.656799
 C   -9.984978    1.280921   -0.962505
 C   -9.348344    0.949767    0.230302
 O   -5.626984    0.265160    2.789988
 S   -3.787802   -1.254602    1.351712
 H    6.716542    0.332231    0.408346
 H    9.180977    1.765780    3.597347
 H    9.644460   -0.239201   -0.908117
 H   -1.070651   -1.418381   -2.103222
 H   -0.011746   -2.698090   -2.728625
 H   -0.823283   -4.248661   -0.957199
 H   -2.201982   -3.594622   -1.864484
 H   -0.366218   -3.415189    1.269002
 H   -1.400107   -2.186965    1.981237
 H    0.803052   -1.209245    1.221584
 H   -0.559320   -0.491783    0.340704
 H    1.272699   -2.732822   -0.623669
 H    1.266573   -0.605248   -2.389858
 H    8.079289    3.117821   -0.824771
 H    8.714420    1.866259   -1.870646
 H    8.135560    2.862022    1.643595
 H   10.463046   -0.339503    3.304518
 H   10.692668   -1.337118    1.043134
 H   -6.704041    0.318610   -0.186840
 H   -7.297248    2.260030    2.574098
 H   -8.263399    0.803782    2.678323
 H   -7.171035    3.542288    0.425412
 H   -8.302509    4.136991   -1.690585
 H  -10.107052    2.687302   -2.587243
 H  -10.773619    0.642200   -1.348327
 H   -9.642411    0.052434    0.769471
