53 
5wjj_ligand_ani.xyz
 C   -4.084733   -0.410240    0.344688
 C   -3.469736   -1.581141    0.795582
 C   -4.207241   -2.744560    0.958863
 C   -5.560954   -2.719159    0.671295
 C   -1.913928    5.064483    0.072024
 C   -1.985494    1.005023   -0.207017
 C   -0.381442   -1.865811   -2.015125
 C    1.251714   -0.806146   -0.849312
 C    3.310179    0.179956    0.153185
 C    4.786302   -0.057350    0.240295
 C    6.978248    0.892882    0.452747
 C   -7.701572   -1.613304   -0.051844
 C   -6.223084   -1.574444    0.234652
 C   -5.458905   -0.423553    0.089963
 F   -6.281163   -3.847724    0.822685
 C   -3.329493    0.838045    0.155553
 N   -3.925788    2.031344    0.373072
 C   -2.991560    2.948382    0.213290
 C   -3.048233    4.363173    0.324483
 C   -0.730692    4.340803   -0.292456
 N   -0.649488    3.041086   -0.397842
 N   -1.778256    2.368901   -0.128094
 C   -0.975145    0.064143   -0.713616
 C   -1.350045   -0.980984   -1.571958
 N    0.907600   -1.795340   -1.671282
 N    2.613780   -0.786509   -0.525134
 O    2.813098    1.183660    0.637456
 C    5.617930    1.055984    0.389535
 N    7.539500   -0.351932    0.396072
 O    8.799819   -0.479227    0.450139
 C    6.744371   -1.469327    0.291563
 C    7.498778   -2.765353    0.263074
 C    5.378407   -1.321259    0.210670
 C    0.362112    0.138367   -0.338324
 H   -2.405134   -1.589730    1.005998
 H   -3.752461   -3.666732    1.302863
 H   -1.880996    6.147723    0.135060
 H   -0.652548   -2.679432   -2.682800
 H    7.702566    1.690049    0.550793
 H   -7.929084   -2.337170   -0.840856
 H   -8.266024   -1.910432    0.837679
 H   -8.064145   -0.632464   -0.374035
 H   -5.935787    0.500472   -0.227897
 H   -3.990729    4.820652    0.601959
 H    0.194510    4.862127   -0.507696
 H   -2.386768   -1.109475   -1.864619
 H    3.144050   -1.491912   -1.016938
 H    5.183800    2.045921    0.452472
 H    8.189716   -2.772494   -0.584396
 H    8.106197   -2.860922    1.167202
 H    6.812599   -3.610105    0.187120
 H    4.777629   -2.226215    0.172031
 H    0.733612    0.909686    0.322720
