53 
5wjj_ligand_xtb.xyz
 C   -4.126881   -0.385802    0.288285
 C   -3.561671   -1.580958    0.727337
 C   -4.359225   -2.694009    0.911799
 C   -5.715160   -2.600371    0.662443
 C   -1.737152    4.963813    0.012234
 C   -1.980218    0.948111   -0.250036
 C   -0.345256   -2.004383   -1.834793
 C    1.270365   -0.788559   -0.793423
 C    3.335991    0.202354    0.177332
 C    4.802019   -0.050605    0.241410
 C    6.995674    0.859626    0.570396
 C   -7.797604   -1.366884    0.005159
 C   -6.321755   -1.419438    0.245271
 C   -5.501888   -0.318157    0.067455
 F   -6.483359   -3.699515    0.842226
 C   -3.330583    0.819415    0.103308
 N   -3.880905    2.029599    0.337205
 C   -2.923046    2.917346    0.159014
 C   -2.915359    4.312714    0.267620
 C   -0.605431    4.206865   -0.357119
 N   -0.598230    2.910913   -0.463409
 N   -1.729738    2.286145   -0.196595
 C   -0.984692   -0.019035   -0.672214
 C   -1.340533   -1.130200   -1.445182
 N    0.930659   -1.849040   -1.522136
 N    2.634774   -0.729735   -0.533609
 O    2.838292    1.172089    0.711315
 C    5.640226    1.036580    0.492053
 N    7.567994   -0.359080    0.428241
 O    8.813200   -0.494131    0.503055
 C    6.769824   -1.446812    0.209952
 C    7.481111   -2.749079    0.091621
 C    5.404349   -1.301807    0.112197
 C    0.356353    0.157226   -0.341706
 H   -2.505748   -1.637240    0.940591
 H   -3.944835   -3.630219    1.251333
 H   -1.662186    6.036352    0.083960
 H   -0.570400   -2.876403   -2.434233
 H    7.687881    1.667474    0.751031
 H   -8.069472   -2.030770   -0.815101
 H   -8.335259   -1.704600    0.890013
 H   -8.111616   -0.356207   -0.238806
 H   -5.923547    0.624045   -0.246248
 H   -3.822737    4.823534    0.544849
 H    0.339491    4.680872   -0.573906
 H   -2.365163   -1.292195   -1.738176
 H    3.136643   -1.483382   -0.983890
 H    5.207586    2.015884    0.620134
 H    8.224782   -2.686105   -0.702885
 H    8.029200   -2.951079    1.012027
 H    6.790104   -3.560689   -0.110797
 H    4.816779   -2.195891   -0.034615
 H    0.688168    0.999269    0.239385
