48 
5wkm_ligand_dft.xyz
 C    3.715291   -0.329250    0.150895
 C    1.271211   -0.172719    0.078603
 C    0.717751    1.031709   -0.708997
 C    1.459275    2.355392   -0.489413
 C    1.387603    2.808077    0.971976
 C    0.874595    3.416297   -1.425575
 C    0.256445   -1.307394   -0.045162
 C   -2.034665   -1.934472    0.752905
 C   -2.942696   -1.176548   -0.231560
 C   -3.619318    0.093979    0.325418
 C   -2.678335    1.186356    0.859577
 C   -3.965928    2.085096   -0.810821
 C   -4.410368    0.830629   -0.726504
 C   -1.958514   -3.431491    0.398300
 C    6.017830   -0.713263    0.075436
 N    2.535419   -0.634304   -0.441655
 N   -0.726058   -1.285217    0.875557
 N   -2.936089    2.308701    0.120984
 O    3.863340    0.442978    1.079956
 O   -1.870189    1.119630    1.774410
 O   -1.854858   -3.699408   -0.970610
 O    0.353821   -2.117150   -0.970443
 O    4.725131   -0.996071   -0.448003
 H    1.412882    0.096505    1.128895
 H   -0.334372    1.181353   -0.435249
 H    0.734158    0.761219   -1.772626
 H    2.515130    2.209165   -0.750660
 H    0.353621    2.784630    1.340797
 H    1.998429    2.165884    1.612345
 H    1.767887    3.830014    1.079603
 H   -0.189854    3.579651   -1.207833
 H    1.389659    4.375527   -1.306988
 H    0.955086    3.115366   -2.476208
 H   -2.464043   -1.871913    1.760039
 H   -3.740721   -1.850062   -0.561952
 H   -2.367837   -0.932105   -1.130668
 H   -4.257204   -0.199494    1.171883
 H   -4.275555    2.888343   -1.465092
 H   -5.180148    0.383605   -1.339755
 H   -2.894709   -3.891897    0.732270
 H   -1.139946   -3.884942    0.978416
 H    6.707333   -1.321850   -0.509804
 H    6.257194    0.347413   -0.036531
 H    6.078176   -0.980223    1.133499
 H    2.498475   -1.370796   -1.133434
 H   -0.743440   -0.477892    1.491401
 H   -2.464079    3.184397    0.286272
 H   -1.008040   -3.300367   -1.245774
