86 
5wlo_ligand_ani.xyz
 C   -3.898076   -1.808791    2.833611
 C   -3.580705   -0.474713    3.075067
 C   -3.499766    0.449990    2.030374
 C   -3.726259    0.010635    0.725275
 C   -4.037012   -1.329728    0.482120
 C   -4.126088   -2.233912    1.522718
 S   -3.788872    1.112299   -0.682218
 O   -4.594244    0.420325   -1.683470
 O   -4.184827    2.444716   -0.243246
 N   -2.214446    1.274795   -1.312814
 C   -1.430259    0.022838   -1.391879
 C   -0.200759    0.094958   -0.482030
 O   -0.518471   -0.146945    0.868351
 C    0.934284   -0.858527   -0.870426
 N    2.108212   -0.440467   -0.121804
 C    3.342221   -0.825726   -0.558186
 O    3.583716   -1.335733   -1.634185
 O    4.279876   -0.547771    0.381761
 C    5.614574   -0.951126    0.032182
 C    6.263882   -0.043859   -1.011946
 O    7.657028   -0.224620   -0.798201
 C    7.892598   -0.370687    0.572986
 O    8.241574    0.861894    1.161299
 C    7.576335    0.984676    2.408419
 C    6.223749    0.307053    2.207427
 C    6.561519   -0.827863    1.233242
 C    0.631646   -2.349454   -0.621578
 C   -0.247012   -3.051778   -2.878696
 C   -1.227367   -3.601349   -3.699580
 C   -2.425280   -4.052294   -3.152945
 C   -2.631474   -3.949330   -1.780104
 C   -1.644286   -3.410802   -0.960075
 C   -0.439887   -2.951516   -1.498119
 O   -4.002300   -2.761514    3.796831
 C   -3.748564   -2.364995    5.124445
 C   -2.306759    1.974118   -2.627571
 C   -0.990270    2.647828   -3.031649
 C   -0.974980    4.153673   -2.729974
 C   -1.248839    4.530077   -1.268848
 C   -3.133742    1.876720    2.347820
 O   -1.885585    2.171265    1.728192
 C   -1.593891    3.562347    1.647565
 C   -0.287271    3.708719    0.925689
 C   -0.138186    4.153996   -0.322396
 H   -3.392406   -0.125171    4.084439
 H   -4.230218   -1.642926   -0.540596
 H   -4.361645   -3.280896    1.354399
 H   -2.043531   -0.842747   -1.134224
 H   -1.093465   -0.108310   -2.425772
 H    0.212469    1.110741   -0.584808
 H   -0.983568    0.637664    1.208298
 H    1.184770   -0.717927   -1.927756
 H    1.994895   -0.339315    0.878186
 H    5.590576   -1.982283   -0.332933
 H    6.020798   -0.330348   -2.037147
 H    5.982021    1.005950   -0.849244
 H    8.735770   -1.067111    0.679190
 H    8.154551    0.495805    3.208352
 H    7.507458    2.052324    2.634611
 H    5.776388   -0.049143    3.137717
 H    5.522890    1.004267    1.740216
 H    6.673042   -1.786899    1.751108
 H    1.575074   -2.877443   -0.806600
 H    0.380368   -2.482711    0.436383
 H    0.688484   -2.702177   -3.315650
 H   -1.053943   -3.676560   -4.770675
 H   -3.191767   -4.479598   -3.793608
 H   -3.568292   -4.291727   -1.345078
 H   -1.819655   -3.310111    0.109261
 H   -2.726215   -1.981713    5.237516
 H   -3.870271   -3.259199    5.737704
 H   -4.459904   -1.597060    5.454852
 H   -3.099892    2.725494   -2.542844
 H   -2.648504    1.255424   -3.384240
 H   -0.155575    2.148827   -2.524879
 H   -0.834820    2.503771   -4.107371
 H   -1.733407    4.639964   -3.358468
 H   -0.008271    4.576249   -3.032131
 H   -2.194352    4.080843   -0.942700
 H   -1.399113    5.617587   -1.220476
 H   -3.902538    2.560468    1.976357
 H   -3.030793    1.998250    3.435432
 H   -2.410767    4.072567    1.117210
 H   -1.521452    3.977106    2.664877
 H    0.586387    3.367596    1.477871
 H    0.875421    4.283420   -0.705255
