60 
5wlv_ligand_dft.xyz
 C    0.536794   -2.010427    0.292390
 C    1.051889   -2.522226   -0.899242
 C    2.429377   -2.572848   -1.062286
 C    3.293771   -2.111002   -0.061327
 C    2.745070   -1.628746    1.130315
 C    1.370441   -1.571701    1.317257
 S   -1.212055   -1.920824    0.528352
 O   -1.495902   -0.986447    1.606982
 O   -1.837142   -1.705094   -0.784533
 N   -1.786422   -3.392171    1.030747
 C    4.780905   -2.014080   -0.294271
 C    5.131414   -0.884380   -1.302599
 N    4.232592    0.256405   -1.243697
 C    4.065929    0.945898   -0.075518
 O    4.815895    0.803903    0.878644
 C    2.840349    1.809388   -0.012212
 C    2.217975    2.351294   -1.137664
 C    1.006576    3.020994   -1.016365
 C    0.414120    3.153642    0.235966
 C    1.055884    2.672184    1.376125
 C    2.266080    2.006767    1.244416
 O   -0.803184    3.797798    0.305179
 C   -1.856473    3.059645    0.906607
 C   -2.297955    1.969630   -0.061976
 O   -2.705283    2.524755   -1.297031
 C   -3.488397    1.173821    0.441777
 N   -3.894179    0.246805   -0.655518
 C   -5.215840   -0.461900   -0.502005
 C   -5.189185   -1.355139    0.730607
 C   -5.478502   -1.237167   -1.786961
 H    0.387754   -2.846192   -1.694325
 H    2.840781   -2.957660   -1.991765
 H    3.406873   -1.247610    1.901231
 H    0.951407   -1.158898    2.228514
 H   -1.459038   -3.648255    1.958061
 H   -1.649727   -4.132032    0.348132
 H    5.279499   -1.807902    0.654205
 H    5.177255   -2.959298   -0.681046
 H    5.089484   -1.262919   -2.327109
 H    6.153016   -0.546858   -1.115679
 H    3.439712    0.226455   -1.866257
 H    2.679237    2.268518   -2.117803
 H    0.518564    3.448979   -1.886361
 H    0.619698    2.825167    2.357958
 H    2.784767    1.623919    2.117124
 H   -2.662971    3.778394    1.071952
 H   -1.558416    2.625386    1.867474
 H   -1.451442    1.281486   -0.213854
 H   -2.068029    3.214099   -1.532519
 H   -3.226134    0.583364    1.319202
 H   -4.339566    1.827413    0.651613
 H   -3.894738    0.810617   -1.515010
 H   -3.148392   -0.468785   -0.775802
 H   -5.960268    0.331706   -0.381093
 H   -5.039937   -0.790444    1.654467
 H   -4.403697   -2.114427    0.651824
 H   -6.149794   -1.869881    0.812953
 H   -5.497225   -0.580587   -2.663253
 H   -4.715236   -2.008147   -1.938102
 H   -6.450906   -1.730898   -1.721237
