60 
5wlv_ligand_ani.xyz
 C    0.068092   -2.538653    0.092775
 C    0.858140   -3.228302   -0.822910
 C    2.240779   -3.178368   -0.695793
 C    2.842098   -2.447735    0.333836
 C    2.023792   -1.771072    1.242042
 C    0.640842   -1.808045    1.129734
 S   -1.698230   -2.587924   -0.056536
 O   -2.209880   -1.405021    0.633969
 O   -2.033701   -2.870468   -1.439860
 N   -2.259039   -3.868358    0.836003
 C    4.342709   -2.303172    0.412383
 C    4.907819   -1.391247   -0.699698
 N    4.140587   -0.175477   -0.903522
 C    4.172814    0.815316    0.044160
 O    5.015613    0.856686    0.927216
 C    3.061625    1.814964   -0.055105
 C    2.439879    2.123218   -1.268100
 C    1.352710    2.984210   -1.297350
 C    0.869024    3.527290   -0.109098
 C    1.517209    3.271594    1.099028
 C    2.620945    2.428947    1.115702
 O   -0.257134    4.317749   -0.163489
 C   -1.370627    3.807846    0.569059
 C   -1.813314    2.476213   -0.022307
 O   -2.082057    2.627496   -1.413893
 C   -3.086515    1.913599    0.594659
 N   -3.533912    0.795448   -0.253041
 C   -4.934397    0.351997   -0.067221
 C   -5.176042   -0.098769    1.375485
 C   -5.219159   -0.768688   -1.066504
 H    0.389600   -3.780181   -1.632377
 H    2.868585   -3.704921   -1.412049
 H    2.484673   -1.200556    2.045509
 H    0.008657   -1.265378    1.826847
 H   -2.084707   -3.776187    1.830136
 H   -1.997504   -4.771820    0.459577
 H    4.614758   -1.865235    1.377891
 H    4.834166   -3.282468    0.349430
 H    4.938360   -1.923770   -1.655458
 H    5.929545   -1.099212   -0.447567
 H    3.252286   -0.296730   -1.373232
 H    2.818560    1.705612   -2.198445
 H    0.845910    3.211093   -2.232447
 H    1.160883    3.739728    2.014022
 H    3.140022    2.212640    2.045329
 H   -2.158795    4.561014    0.468402
 H   -1.115102    3.701493    1.629390
 H   -0.990854    1.751609    0.111228
 H   -1.542590    3.364123   -1.731016
 H   -2.909488    1.583408    1.623179
 H   -3.860376    2.692304    0.620124
 H   -3.376507    1.117247   -1.224426
 H   -2.913001   -0.022707   -0.094285
 H   -5.601297    1.201643   -0.280006
 H   -5.097261    0.738876    2.077716
 H   -4.449751   -0.868226    1.662611
 H   -6.184037   -0.514574    1.480418
 H   -5.102863   -0.409458   -2.096242
 H   -4.533269   -1.611784   -0.917744
 H   -6.243645   -1.140500   -0.958250
