55 
5wmg_ligand_ani.xyz
 C   -3.413508    3.613112    0.350667
 C   -1.762515   -3.253612   -1.116934
 C   -1.067394   -2.665961    1.246837
 C   -0.629257    2.275328   -0.203592
 C    1.190449   -1.673341    0.721550
 C   -2.642471    4.726469    0.980689
 O    8.225172   -0.235861    0.136808
 O    7.692985    1.471531   -1.208763
 N   -3.421967   -2.866034    0.564687
 C   -4.356413   -3.175178   -0.339447
 C   -4.075804   -3.513926   -1.655878
 C   -2.744519   -3.548638   -2.053801
 C   -2.145446   -2.939502    0.192332
 N   -0.172723   -1.601147    0.802988
 N    0.568293    1.731742   -0.182026
 O   -4.694042    3.870678    0.069023
 N   -5.290835    2.757472   -0.486535
 C   -4.692358    0.490723   -1.098263
 C   -4.366915    1.837388   -0.530835
 C   -3.122690    2.328499   -0.013120
 C   -1.849167    1.614834    0.074827
 C   -1.802484    0.274709    0.420152
 C   -0.547086   -0.312028    0.480382
 C    0.616744    0.423059    0.175180
 C    1.745464   -0.474261    0.339020
 C    4.974796    1.086814   -0.841763
 C    3.621779    0.866349   -0.650392
 C    3.172153   -0.192664    0.156973
 C    4.127834   -1.008231    0.781784
 C    5.480316   -0.782711    0.598616
 C    5.913782    0.260883   -0.220063
 C    7.375887    0.446755   -0.390364
 C   -1.646168   -2.387295    2.633558
 H   -0.709542   -3.268899   -1.381883
 H   -0.424420   -3.553959    1.295986
 H   -0.662372    3.324063   -0.495041
 H    1.671751   -2.624615    0.930560
 H   -1.777304    4.339662    1.525264
 H   -3.277331    5.283187    1.674499
 H   -2.280549    5.433371    0.224257
 H    8.663509    1.485798   -1.237585
 H   -5.388627   -3.141163    0.010070
 H   -4.884034   -3.744713   -2.342506
 H   -2.475764   -3.806147   -3.075612
 H   -3.921396    0.174803   -1.807837
 H   -5.661321    0.518244   -1.601304
 H   -4.735000   -0.266022   -0.307792
 H   -2.704036   -0.287719    0.643338
 H    5.314567    1.901739   -1.472811
 H    2.887224    1.515576   -1.116590
 H    3.810421   -1.819575    1.432397
 H    6.223895   -1.409251    1.080779
 H   -2.291478   -1.505099    2.616827
 H   -2.245830   -3.240148    2.959631
 H   -0.834713   -2.219603    3.346319
