44 
5wo4_ligand_ani.xyz
 C   -1.296305    3.939040   -0.306771
 C   -2.615837    1.684561   -0.451728
 C   -3.060711   -0.789677   -0.418663
 C   -2.982624   -1.555397    0.924026
 C   -3.474840   -0.715616    2.025067
 C   -0.423347    1.527789   -0.203246
 C    2.042429    1.119034    0.020349
 C    2.041867   -0.271153   -0.120380
 C    3.247266   -0.974416   -0.037246
 C    2.171964   -3.045746   -0.448330
 C    4.447204   -0.283509    0.196545
 C    4.437463    1.094848    0.336747
 C    3.244570    1.796718    0.247176
Cl    5.941310   -1.157819    0.307030
 O    3.347503   -2.317562   -0.166052
 N    0.888889    1.900752   -0.062906
 C   -1.485911    2.474553   -0.329116
 N   -2.416221    4.700084   -0.438932
 O   -0.184765    4.460807   -0.192357
 N   -0.880369    0.280104   -0.235175
 N   -2.220513    0.396492   -0.393131
 N   -3.890121   -0.070566    2.891369
 C   -3.775473   -2.868744    0.834832
 C   -3.333855   -3.652379   -0.392472
 O   -3.475519   -2.885321   -1.570024
 C   -2.655873   -1.732488   -1.554146
 H   -3.670106    1.912618   -0.581017
 H   -4.085640   -0.452687   -0.590259
 H   -1.922898   -1.767523    1.112639
 H    1.104695   -0.780086   -0.292311
 H    1.437285   -2.942750    0.360656
 H    1.717261   -2.716342   -1.391353
 H    2.476586   -4.089179   -0.534520
 H    5.373235    1.616257    0.514821
 H    3.244127    2.878703    0.356655
 H    1.006830    2.912000   -0.040753
 H   -2.304158    5.696822   -0.328943
 H   -3.339748    4.305029   -0.374318
 H   -4.847165   -2.647465    0.763531
 H   -3.617938   -3.465308    1.740048
 H   -3.942458   -4.550152   -0.531202
 H   -2.281695   -3.965857   -0.274066
 H   -1.595730   -2.008969   -1.441720
 H   -2.792064   -1.248159   -2.524366
