36 
5wqk_ligand_xtb.xyz
 O    0.145538    0.291674   -1.796596
 C    0.649208    1.044401   -0.978779
 C   -0.185694    2.129040   -0.343513
 S   -0.913260    1.388725    1.187653
 C   -2.338289    0.512182    0.597490
 N   -3.238437    0.300112    1.470643
 C   -4.401037   -0.403833    1.144528
 O   -5.246427   -0.631385    1.978602
 C   -4.496420   -0.821183   -0.256503
 N   -2.386746    0.117446   -0.697509
 C   -3.500403   -0.572167   -1.127494
 C   -3.484342   -0.973011   -2.565199
 C    2.030280    0.907761   -0.488305
 C    2.831264    2.026707   -0.394226
 C    4.162343    1.929150    0.021209
 C    4.686920    0.713569    0.363955
 C    3.903275   -0.455888    0.296268
 C    4.435039   -1.711899    0.657709
 C    3.668836   -2.840907    0.595137
 C    2.333781   -2.758548    0.174497
 C    1.788118   -1.556275   -0.182602
 C    2.554386   -0.373707   -0.145556
 H   -0.995882    2.468619   -0.987672
 H    0.399429    2.968753    0.018853
 H   -5.385358   -1.350636   -0.556192
 H   -1.586644    0.204422   -1.329840
 H   -4.327175   -1.619421   -2.788336
 H   -3.541862   -0.089833   -3.201414
 H   -2.558402   -1.496100   -2.800951
 H    2.450291    2.992851   -0.691131
 H    4.767618    2.821689    0.067266
 H    5.713692    0.630624    0.689516
 H    5.461496   -1.759476    0.991468
 H    4.081390   -3.799083    0.873428
 H    1.733313   -3.655108    0.137429
 H    0.760048   -1.514468   -0.504577
