58 
5ws3_ligand_dft.xyz
 C    4.835248   -1.027863   -0.223320
 C   -0.785316   -1.955451    0.677342
 C   -0.313444    0.336455   -0.137498
 C   -0.527112    1.028513    1.063201
 C    2.270685    4.447762   -0.638281
 C   -3.509135   -0.180707   -0.248847
 C   -5.053034   -0.514133    1.578086
 C   -3.092100    2.191071   -1.199307
 C   -3.722904    1.210608   -0.240926
 C   -4.618356    1.694072    0.718927
 C   -5.269219    0.858159    1.618808
 C   -4.170879   -1.031542    0.639458
 S   -2.300716   -0.981448   -1.299839
 O   -2.654097   -2.388381   -1.409205
 O   -2.065825   -0.177633   -2.483380
 N   -0.874687   -0.953820   -0.392245
 C    0.473064    0.934900   -1.110989
 N    1.020147    2.144516   -0.974051
 C    0.051087    2.267906    1.228230
 C    0.821710    2.783348    0.171144
 O    1.366817    3.989530    0.359278
 C    0.604764   -1.931309    1.317017
 O    0.718197   -1.577919    2.484296
 N    1.665430   -2.284369    0.542342
 C    1.576037   -2.778496   -0.829135
 C    1.583654   -4.303167   -0.908181
 C    3.002433   -2.169766    1.115561
 C    3.728880   -0.941991    0.615112
 C    5.446254    0.141432   -0.665304
 C    4.921108    1.356884   -0.245409
 N    3.859926    1.465367    0.559553
 C    3.284817    0.336507    0.970325
 H    5.217158   -2.000287   -0.526785
 H   -1.013431   -2.931142    0.243436
 H   -1.490487   -1.762600    1.494137
 H   -1.121997    0.589117    1.856841
 H    3.096619    3.741224   -0.749588
 H    1.765969    4.569268   -1.600826
 H    2.634399    5.409564   -0.275316
 H   -5.567237   -1.178546    2.264658
 H   -2.003183    2.210995   -1.111377
 H   -3.320551    1.931434   -2.234834
 H   -3.467022    3.197287   -0.995218
 H   -4.810745    2.762704    0.752204
 H   -5.953863    1.282398    2.346994
 H   -3.999940   -2.100410    0.572883
 H    0.646392    0.419158   -2.051424
 H   -0.063516    2.842786    2.139210
 H    2.427823   -2.361086   -1.378210
 H    0.680388   -2.372537   -1.299956
 H    2.483063   -4.726792   -0.448738
 H    0.712229   -4.723236   -0.395946
 H    1.552162   -4.626252   -1.953335
 H    3.572528   -3.070822    0.862632
 H    2.886652   -2.134362    2.199753
 H    6.310004    0.112031   -1.321263
 H    5.372987    2.292622   -0.568046
 H    2.419168    0.444883    1.622349
