44 
5wuu_ligand_ani.xyz
 C   -3.846331    1.430941    0.539109
 C   -3.834825    2.297147   -0.538644
 C   -3.110202    1.972927   -1.690530
 C   -2.393643    0.789929   -1.744266
 C   -2.382654   -0.106424   -0.657094
 C   -3.134652    0.232825    0.471986
 O   -3.211900   -0.568727    1.571447
 C   -2.567518   -1.792331    1.633709
 C   -1.759138   -2.162710    0.491843
 C   -1.634733   -1.365442   -0.607542
 O   -2.721335   -2.450514    2.632812
 N   -0.843989   -1.698307   -1.679212
 C    0.120745   -2.785407   -1.631571
 C    1.340222   -2.575334   -0.723303
 C    2.245699   -1.415955   -1.146123
 N    3.221641   -1.084244   -0.117452
 C    3.348623    0.114392    0.539058
 C    2.253700    1.129107    0.376622
 S    2.745425    2.809632    0.254628
 C    1.019163    3.379653    0.370614
 C    0.135692    2.180130   -0.003168
 C    0.916414    0.958237    0.369190
 O    4.329429    0.375179    1.222439
 C    4.228587   -2.099262    0.145913
 H   -4.398231    1.652812    1.447296
 H   -4.390849    3.229039   -0.488363
 H   -3.101015    2.652797   -2.538948
 H   -1.829701    0.570255   -2.647338
 H   -1.236973   -3.103296    0.593184
 H   -0.593758   -0.932974   -2.284176
 H    0.447937   -2.957100   -2.664216
 H   -0.410456   -3.693992   -1.327075
 H    1.923232   -3.503997   -0.718040
 H    1.011199   -2.413253    0.310069
 H    1.673707   -0.518558   -1.388199
 H    2.783688   -1.695010   -2.065332
 H    0.873271    4.233416   -0.298415
 H    0.821529    3.715390    1.395326
 H   -0.020976    2.175709   -1.093679
 H   -0.857374    2.219755    0.463189
 H    0.413836    0.022074    0.578728
 H    3.823383   -2.930785    0.736703
 H    4.612603   -2.503090   -0.798662
 H    5.044140   -1.637477    0.702147
