118 
5wxg_ligand_dft.xyz
 N   -1.198819   -3.227264   -0.491523
 C   -1.456566   -2.387240   -1.696391
 C   -2.794597   -1.653234   -1.590618
 O   -3.545887   -1.573540   -2.554746
 C   -1.376096   -3.240407   -2.948653
 N   -3.077009   -1.068552   -0.396603
 C   -4.221973   -0.169995   -0.290974
 C   -3.699722    1.237693   -0.604895
 O   -3.418833    2.025614    0.300819
 C   -4.927450   -0.275815    1.063599
 C   -6.148759   -1.199760    1.023333
 C   -5.842833   -2.637811    0.600039
 N   -4.935552   -3.279721    1.532614
 C   -3.857615   -4.033295    1.181150
 N   -2.927412   -4.235743    2.178802
 N   -3.575896   -4.502470    0.005009
 N   -3.556782    1.478183   -1.923801
 C   -2.754340    2.535774   -2.548663
 C   -1.325779    1.980341   -2.732585
 O   -1.132900    1.028396   -3.476687
 C   -2.885668    3.953175   -1.944493
 O   -2.167578    4.151467   -0.737319
 C   -4.342464    4.380935   -1.801400
 O    4.139547    0.858027    0.428615
 C    4.914907    1.762497    0.116251
 C    6.030386    1.533742   -0.877658
 N    4.779489    3.014614    0.602615
 C    3.768277    3.382647    1.584286
 C    2.518154    4.058623    1.016998
 C    1.583916    3.142611    0.213129
 C    1.934655    3.028634   -1.271473
 C    0.999763    2.101481   -2.064953
 N   -0.350135    2.593037   -2.029908
 C    1.061132    0.650433   -1.549344
 O    0.160207    0.136741   -0.897385
 N    2.213565    0.012695   -1.863848
 C    2.522888   -1.388438   -1.626738
 C    1.991402   -1.917002   -0.295704
 O    1.481499   -3.039750   -0.258135
 C    4.048365   -1.546754   -1.699835
 C    4.564049   -2.959420   -1.464134
 C    6.085597   -2.945274   -1.332006
 O    6.711324   -1.938064   -1.040516
 N    6.691660   -4.142698   -1.532786
 N    2.183178   -1.156543    0.795473
 C    1.511540   -1.464606    2.041262
 C    0.140862   -0.757435    2.030341
 O   -0.853895   -1.333898    1.560089
 C    2.415445   -1.170850    3.242213
 O    2.687802    0.227431    3.236354
 C    3.706592   -1.975164    3.179553
 N    0.095471    0.492599    2.490000
 C   -1.073230    1.334076    2.330770
 C   -0.643495    2.756425    2.624058
 O   -1.555349    3.642855    2.218474
 C   -2.227748    0.944222    3.263594
 O    0.385792    3.060719    3.183638
 H   -1.993874   -3.916742   -0.350678
 H   -1.088884   -2.651734    0.364836
 H   -0.281065   -3.673877   -0.597089
 H   -0.688293   -1.608392   -1.699958
 H   -1.545540   -2.614219   -3.825187
 H   -0.384425   -3.697813   -3.027429
 H   -2.134178   -4.028908   -2.941045
 H   -2.347091   -0.974221    0.309806
 H   -4.908170   -0.463662   -1.090048
 H   -4.213915   -0.628255    1.814786
 H   -5.241010    0.722065    1.382142
 H   -6.632016   -1.205008    2.009009
 H   -6.892264   -0.797247    0.324625
 H   -5.365925   -2.637295   -0.384466
 H   -6.775989   -3.207105    0.508985
 H   -5.155270   -3.189408    2.513179
 H   -2.435075   -5.114677    2.128137
 H   -3.121898   -3.907617    3.111685
 H   -4.340564   -4.398973   -0.653835
 H   -3.709714    0.675361   -2.528869
 H   -3.147963    2.614763   -3.567077
 H   -2.393448    4.609929   -2.670674
 H   -2.568210    3.540821   -0.084044
 H   -4.847952    3.785368   -1.035803
 H   -4.883482    4.265797   -2.746115
 H   -4.382712    5.430931   -1.501448
 H    6.842000    2.260556   -0.786508
 H    6.422674    0.520533   -0.757088
 H    5.619235    1.610085   -1.891336
 H    5.440399    3.718133    0.309885
 H    3.481973    2.465730    2.105914
 H    4.243366    4.049822    2.310683
 H    2.805184    4.930639    0.413719
 H    1.964917    4.441116    1.880315
 H    1.569459    2.146441    0.671906
 H    0.565116    3.539083    0.303446
 H    2.962266    2.671585   -1.387535
 H    1.895214    4.020974   -1.736786
 H    1.328331    2.076506   -3.112172
 H   -0.646260    3.288569   -1.347027
 H    2.906706    0.530174   -2.383939
 H    2.034904   -2.012586   -2.385225
 H    4.489632   -0.880566   -0.955981
 H    4.384922   -1.203217   -2.686765
 H    4.251971   -3.641863   -2.263386
 H    4.157013   -3.370922   -0.531600
 H    7.693664   -4.199083   -1.430321
 H    6.184455   -4.973184   -1.790917
 H    2.680019   -0.268365    0.712888
 H    1.293319   -2.534611    2.033323
 H    1.851672   -1.433204    4.150450
 H    3.344024    0.425380    3.914567
 H    3.498148   -3.048471    3.132512
 H    4.286289   -1.685505    2.298515
 H    4.312443   -1.792857    4.073785
 H    0.938111    0.902128    2.891563
 H   -1.413406    1.282412    1.291700
 H   -1.233080    4.528865    2.451233
 H   -3.115360    1.528349    3.012441
 H   -2.446649   -0.116200    3.125655
 H   -1.957439    1.113876    4.310368
