51 
5wzs_ligand_ani.xyz
 O    5.656594   -3.292232    0.973759
 C    4.729148   -2.531451    0.353587
 O    4.575245   -2.576396   -0.832338
 C    3.904166   -1.661882    1.312948
 O    3.165951   -0.666732    0.655709
 C    1.942207   -0.969217    0.137422
 C    1.451555   -2.242943   -0.083709
 C    0.123463   -2.421074   -0.515328
 C   -0.729878   -1.356029   -0.734112
 C   -0.200179   -0.074747   -0.545774
 C    1.133059    0.136585   -0.182511
 C    1.343139    1.560300   -0.128149
 C    2.606722    2.282486    0.069995
 O    2.726432    3.309839    0.716603
 C    3.860877    1.736900   -0.644876
 O    3.760650    1.018622   -1.620436
 N    5.005764    2.168918   -0.076699
 C    0.121421    2.148945   -0.377823
 C   -0.269619    3.596423   -0.391913
 N   -0.797387    1.165083   -0.661753
 C   -2.194956    1.340570   -1.026039
 C   -3.162780    0.866681    0.045034
 C   -4.209365   -0.078065   -0.224015
 C   -4.413642   -0.693981   -1.494147
 C   -5.423875   -1.598344   -1.699154
 C   -6.293563   -1.950230   -0.644164
 C   -6.125365   -1.385942    0.588555
 C   -5.086794   -0.448158    0.834431
 C   -4.909908    0.116605    2.126039
 C   -3.895828    1.001939    2.360318
 C   -3.020061    1.367232    1.314414
 H    5.621274   -3.145138    1.928627
 H    4.577206   -1.134195    1.997253
 H    3.248668   -2.309270    1.917735
 H    2.071752   -3.122935    0.058148
 H   -0.239812   -3.434487   -0.662538
 H   -1.769150   -1.506344   -1.018837
 H    5.879557    1.936452   -0.522271
 H    4.963573    2.918866    0.597370
 H    0.572445    4.215098   -0.074807
 H   -0.579870    3.923643   -1.393904
 H   -1.107900    3.790322    0.290043
 H   -2.358631    0.823827   -1.971218
 H   -2.345555    2.406026   -1.218691
 H   -3.764346   -0.447965   -2.329732
 H   -5.555862   -2.049199   -2.678588
 H   -7.090748   -2.667722   -0.819522
 H   -6.786901   -1.648934    1.411301
 H   -5.592040   -0.174602    2.921891
 H   -3.750479    1.429550    3.349152
 H   -2.210472    2.058589    1.535195
