51 
5wzs_ligand_dft.xyz
 O    6.440930   -2.526561    0.720083
 C    5.428462   -1.871506    0.103097
 O    5.339940   -1.850785   -1.088454
 C    4.442577   -1.211614    1.070153
 O    3.504650   -0.397232    0.444368
 C    2.374660   -0.948792   -0.084003
 C    2.190460   -2.296625   -0.346328
 C    0.946528   -2.768908   -0.800955
 C   -0.130597   -1.924393   -0.991448
 C    0.085646   -0.565787   -0.742703
 C    1.318807   -0.052867   -0.313919
 C    1.128662    1.356413   -0.070585
 C    2.113258    2.356970    0.330121
 O    1.867118    3.315249    1.051033
 C    3.514872    2.282096   -0.310635
 O    3.687012    1.826970   -1.421763
 N    4.478195    2.837297    0.476386
 C   -0.197649    1.633846   -0.345657
 C   -0.939965    2.924950   -0.268701
 N   -0.812040    0.489062   -0.788085
 C   -2.211657    0.355672   -1.119896
 C   -3.095244   -0.014086    0.058070
 C   -4.498833   -0.189348   -0.156037
 C   -5.107155   -0.035914   -1.430964
 C   -6.457833   -0.212089   -1.596902
 C   -7.275914   -0.551406   -0.496992
 C   -6.719593   -0.706340    0.746053
 C   -5.327011   -0.531109    0.950376
 C   -4.744157   -0.689342    2.235628
 C   -3.399643   -0.515899    2.412604
 C   -2.572764   -0.176766    1.316196
 H    6.377622   -2.436605    1.680918
 H    4.999976   -0.553834    1.747199
 H    3.958639   -1.995179    1.674704
 H    3.007252   -2.999194   -0.232412
 H    0.833736   -3.831161   -0.993188
 H   -1.099331   -2.305994   -1.295567
 H    5.358514    3.053045    0.032107
 H    4.161103    3.448786    1.215621
 H   -0.300349    3.688635    0.172412
 H   -1.263707    3.260167   -1.261306
 H   -1.831999    2.819597    0.359569
 H   -2.293501   -0.397858   -1.910814
 H   -2.549119    1.298802   -1.561686
 H   -4.501365    0.224450   -2.293313
 H   -6.902108   -0.090259   -2.580165
 H   -8.343324   -0.688425   -0.640277
 H   -7.341217   -0.967368    1.598690
 H   -5.385246   -0.950222    3.073493
 H   -2.954194   -0.637543    3.395039
 H   -1.507182   -0.048402    1.479293
