48 
5wzu_ligand_dft.xyz
 O    6.121957   -2.881650    0.672292
 C    5.136789   -2.161360    0.084326
 O    4.952716   -2.211316   -1.095184
 C    4.311066   -1.329926    1.069223
 O    3.406280   -0.470416    0.455101
 C    2.190456   -0.940389    0.054528
 C    1.848195   -2.277930   -0.064615
 C    0.532899   -2.651400   -0.394284
 C   -0.463891   -1.715958   -0.596270
 C   -0.087950   -0.373941   -0.489439
 C    1.217936    0.040884   -0.194215
 C    1.188334    1.479908   -0.086006
 C    2.294538    2.404178    0.145898
 O    2.196349    3.448470    0.777244
 C    3.631302    2.118559   -0.569333
 O    3.675372    1.537411   -1.633019
 N    4.699329    2.646201    0.090888
 C   -0.120106    1.871614   -0.304006
 C   -0.714216    3.240053   -0.327078
 N   -0.877121    0.760661   -0.581180
 C   -2.303886    0.713036   -0.797220
 C   -3.074583    0.289954    0.447450
 C   -2.533154    0.520024    1.710163
 C   -3.230095    0.176561    2.864341
 C   -4.486250   -0.408975    2.772576
 C   -5.037857   -0.653850    1.520473
 C   -4.340912   -0.308896    0.365752
 C   -4.951792   -0.621768   -0.975181
 F   -6.204236   -1.083647   -0.874773
 F   -4.238904   -1.559881   -1.637360
 F   -4.992326    0.463245   -1.773878
 H    6.147294   -2.721386    1.625696
 H    4.989467   -0.685270    1.640033
 H    3.808336   -2.008912    1.776265
 H    2.593149   -3.053650    0.065469
 H    0.300249   -3.708074   -0.479665
 H   -1.486070   -2.009447   -0.810751
 H    5.562198    2.721049   -0.427513
 H    4.499954    3.357712    0.779970
 H    0.041141    3.969917   -0.037506
 H   -1.093731    3.494103   -1.323661
 H   -1.547726    3.318166    0.381029
 H   -2.494656    0.032162   -1.628465
 H   -2.641751    1.699981   -1.122906
 H   -1.544096    0.960193    1.793102
 H   -2.784299    0.365680    3.835893
 H   -5.034992   -0.681082    3.668256
 H   -6.013078   -1.118893    1.436946
