48 
5wzu_ligand_xtb.xyz
 O    6.458063   -2.149525   -0.279252
 C    5.165459   -1.764122   -0.320721
 O    4.478766   -1.996188   -1.262201
 C    4.697499   -1.070533    0.967635
 O    3.524073   -0.323834    0.824546
 C    2.360988   -0.935806    0.448401
 C    2.114566   -2.296329    0.504955
 C    0.861177   -2.820609    0.193479
 C   -0.197980   -2.013224   -0.157578
 C    0.045331   -0.647174   -0.215437
 C    1.311133   -0.092883    0.057197
 C    1.161610    1.333121   -0.044722
 C    2.173130    2.352928    0.089379
 O    1.965372    3.489141    0.494376
 C    3.578394    2.016076   -0.422226
 O    3.786035    1.360255   -1.416122
 N    4.538620    2.622451    0.314506
 C   -0.170886    1.572481   -0.349330
 C   -0.846435    2.873468   -0.574239
 N   -0.821891    0.386292   -0.491278
 C   -2.208822    0.212392   -0.812538
 C   -3.087011    0.054750    0.410864
 C   -2.566655    0.206749    1.689175
 C   -3.367578    0.063718    2.808571
 C   -4.711380   -0.234675    2.671706
 C   -5.252194   -0.387561    1.408151
 C   -4.447639   -0.242893    0.285534
 C   -5.061113   -0.418990   -1.076266
 F   -6.378902   -0.642830   -1.036725
 F   -4.527394   -1.456679   -1.752678
 F   -4.891061    0.660753   -1.866155
 H    6.918614   -1.882611    0.526383
 H    5.449339   -0.340557    1.287629
 H    4.595415   -1.841098    1.751186
 H    2.897523   -2.984316    0.780923
 H    0.721441   -3.889319    0.246333
 H   -1.170899   -2.428759   -0.366751
 H    5.482585    2.650456   -0.035557
 H    4.249536    3.323011    0.978096
 H   -0.142831    3.678087   -0.383090
 H   -1.207250    2.954717   -1.600427
 H   -1.696515    2.987029    0.098753
 H   -2.302442   -0.673425   -1.449171
 H   -2.548662    1.075265   -1.393335
 H   -1.520140    0.437221    1.813548
 H   -2.936480    0.186393    3.790262
 H   -5.339159   -0.349010    3.541134
 H   -6.298990   -0.619572    1.288788
