65 
5x33_ligand_ani.xyz
 C    4.389309   -2.669051    0.671194
 C    6.655704   -0.758653    1.201408
 C    3.841595    1.968684   -0.798187
 C    2.450399    1.861038   -0.785670
 C    9.029847   -0.866209    0.825012
 C    0.431915    2.998286   -1.406576
 C   -0.618779    2.629295   -0.376954
 C   -2.816581    1.734731    0.128738
 C   -4.124225    1.169216   -0.366254
 C   -1.382891    2.497129    1.909891
 O    1.755718    3.032703   -0.897530
 O   10.279844   -0.584495    1.284110
 O   -4.818789    0.564978    0.709238
 N  -10.093565   -2.389061   -1.353400
 N  -10.611435   -1.980430    0.935538
 C    4.936978   -1.705242   -0.403673
 C    4.077447   -0.430836   -0.490508
 C    6.391783   -1.395139   -0.017908
 C    4.843508   -2.420316   -1.762649
 C    4.633805    0.841219   -0.668166
 C    2.682718   -0.517171   -0.497556
 C    7.487499   -1.754128   -0.800354
 C    1.868916    0.603421   -0.636253
 C    7.949503   -0.494720    1.625502
 C    8.793175   -1.496038   -0.392552
 C   -1.828701    2.080094   -0.791545
 C   -0.401841    2.842090    0.985361
 C   -2.586310    1.942811    1.487074
 C   -6.019333   -0.011287    0.438911
 C   -6.663898   -0.613631    1.526092
 C   -6.618822   -0.019696   -0.819943
 C   -8.500325   -1.253549    0.086759
 C   -7.893502   -1.218754    1.346518
 C   -7.852907   -0.643075   -0.983192
 C   -9.827293   -1.918122   -0.070334
 H    4.371481   -2.207269    1.663559
 H    3.376578   -3.004909    0.432216
 H    5.027133   -3.557283    0.723458
 H    5.823586   -0.422018    1.819916
 H    4.281992    2.953600   -0.918352
 H    0.263405    4.015337   -1.778266
 H    0.369788    2.313987   -2.265301
 H   -3.934358    0.426671   -1.155008
 H   -4.745686    1.964941   -0.804490
 H   -1.206737    2.660702    2.971506
 H   10.928223   -0.886660    0.635500
 H  -10.885188   -3.014331   -1.422437
 H   -9.291105   -2.717999   -1.874066
 H  -11.488203   -2.445287    0.693886
 H    3.795571   -2.637727   -1.994769
 H    5.241703   -1.800046   -2.573442
 H    5.386361   -3.371590   -1.743434
 H    5.715974    0.951621   -0.698404
 H    2.187001   -1.481621   -0.405782
 H    7.339258   -2.249788   -1.755258
 H    0.790071    0.485229   -0.622810
 H    8.143318    0.000178    2.571279
 H    9.624940   -1.791825   -1.030484
 H   -2.003743    1.914856   -1.855381
 H    0.538342    3.276554    1.313043
 H   -3.353300    1.666312    2.204001
 H   -6.186444   -0.589396    2.501082
 H   -6.142626    0.441506   -1.678884
 H   -8.412831   -1.676249    2.182861
 H   -8.325854   -0.630926   -1.962350
