23 
5x4m_ligand_ani.xyz
 C   -2.547083   -1.346149   -0.195106
 C   -1.996486    0.955585    0.285194
 C    2.260786    1.665293   -0.256828
 C   -1.586284   -0.361917    0.064588
 C    3.191414   -0.334036    0.033718
 N    2.008476   -0.936623    0.132855
 C   -4.308208    0.289339   -0.031325
 C   -3.895966   -1.021907   -0.247903
 C   -3.352324    1.264392    0.234958
 C    0.950010   -0.119675    0.030151
 N    3.392507    0.982683   -0.178884
 N    1.015257    1.207731   -0.150147
 N    4.289205   -1.110616    0.171773
 N   -0.243060   -0.781740    0.118953
 H   -2.225450   -2.371014   -0.366296
 H   -1.260314    1.723119    0.491190
 H    2.358750    2.736499   -0.423174
 H   -5.362193    0.550014   -0.068893
 H   -4.626752   -1.799701   -0.455713
 H   -3.662458    2.292396    0.406978
 H    4.163504   -2.109610    0.142108
 H    5.180719   -0.719014   -0.082854
 H   -0.097652   -1.778290    0.190108
