23 
5x4m_ligand_dft.xyz
 C   -2.565624   -1.365573   -0.000385
 C   -1.954421    0.971369    0.000581
 C    2.214437    1.678692   -0.000514
 C   -1.575215   -0.374614    0.000225
 C    3.189265   -0.329920    0.000026
 N    2.018936   -0.970221    0.000321
 C   -4.291704    0.317764   -0.000188
 C   -3.909736   -1.021031   -0.000592
 C   -3.306967    1.299704    0.000370
 C    0.946497   -0.163389    0.000201
 N    3.356356    1.011954   -0.000455
 N    0.980739    1.177969   -0.000171
 N    4.310644   -1.077462    0.000609
 N   -0.243437   -0.824198    0.000510
 H   -2.277734   -2.414614   -0.000778
 H   -1.194319    1.739477    0.000981
 H    2.288356    2.764760   -0.000834
 H   -5.342369    0.590080   -0.000283
 H   -4.660322   -1.805867   -0.001065
 H   -3.588362    2.348834    0.000650
 H    4.243431   -2.080863   -0.001465
 H    5.206146   -0.619551   -0.001899
 H   -0.116698   -1.826562    0.000658
