23 
5x4m_ligand_xtb.xyz
 C   -2.571842   -1.368746   -0.004879
 C   -1.908086    0.943113    0.007240
 C    2.171294    1.674649   -0.006617
 C   -1.562573   -0.405480    0.001328
 C    3.172593   -0.320667    0.000767
 N    2.009209   -0.963595    0.003167
 C   -4.241767    0.352431    0.000154
 C   -3.899957   -0.989815   -0.005864
 C   -3.241421    1.309751    0.006932
 C    0.924204   -0.180992   -0.000219
 N    3.308770    1.016494   -0.004502
 N    0.959120    1.156234   -0.004335
 N    4.297600   -1.051265   -0.002664
 N   -0.246179   -0.854887    0.001805
 H   -2.308224   -2.417617   -0.009146
 H   -1.127420    1.684371    0.011617
 H    2.232511    2.756170   -0.009557
 H   -5.280029    0.648177   -0.000248
 H   -4.671048   -1.746221   -0.011376
 H   -3.499954    2.358298    0.012059
 H    4.237698   -2.051758    0.031818
 H    5.181814   -0.578564    0.025661
 H   -0.119666   -1.859189    0.001821
