24 
5x4n_ligand_ani.xyz
 C   -2.090685    0.909972    0.526218
 C   -2.725238   -1.203975   -0.455237
 C    3.161871   -0.127082    0.014156
 C   -1.729848   -0.344609    0.027562
 C    1.995494   -0.860593    0.053674
 C    1.983006    1.781669   -0.134882
 N    0.786697    1.179759   -0.088246
 C   -4.417559    0.442673    0.021939
 C   -3.430602    1.287389    0.517535
 C   -4.055712   -0.809293   -0.466442
 C    0.775034   -0.146098   -0.000556
 N    3.187371    1.203225   -0.083925
 N    1.955805    3.143927   -0.215050
 N   -0.407089   -0.826658    0.023802
Cl    2.034206   -2.592931    0.164032
 H   -1.328446    1.576985    0.913167
 H   -2.446283   -2.184747   -0.835544
 H    4.125223   -0.635313    0.058725
 H   -5.457466    0.757077    0.018890
 H   -3.701496    2.267773    0.902693
 H   -4.812531   -1.486456   -0.854371
 H    1.093342    3.548718   -0.544063
 H    2.813074    3.586130   -0.508569
 H   -0.320966   -1.832436   -0.019335
