27 
5x4p_ligand_dft.xyz
 C    4.631448    0.157318    0.000061
 C    3.497767    2.098254    0.000206
 C   -2.616401   -0.568806   -0.000029
 C   -2.953089    0.789825   -0.000184
 C   -0.284888    0.031504   -0.000044
 C    2.234722    0.196312    0.000059
 C   -1.977538    1.768946   -0.000302
 C   -0.634864    1.383676   -0.000220
 C   -1.292193   -0.949848    0.000036
 C    3.446261   -0.541094    0.000007
 C   -4.989492   -0.304838    0.000095
 C   -3.886926   -1.373492    0.000029
 N    4.679807    1.497390    0.000158
 N    2.292560    1.532262    0.000160
 N   -4.345737    0.917465   -0.000283
 N    1.041582   -0.451744    0.000028
 O   -6.187321   -0.474661    0.000431
Cl    3.444205   -2.286119   -0.000122
 H    5.579246   -0.375301    0.000025
 H    3.505932    3.185575    0.000268
 H   -2.234519    2.823502   -0.000437
 H    0.142926    2.132825   -0.000284
 H   -1.027963   -2.005330    0.000142
 H   -4.003017   -2.011348    0.882387
 H   -4.003077   -2.011293   -0.882364
 H   -4.855207    1.787399    0.000242
 H    1.116436   -1.458860   -0.000077
