27 
5x4p_ligand_ani.xyz
 C    4.608413    0.193821   -0.213431
 C    3.424727    2.085639   -0.452388
 C   -2.600402   -0.562417   -0.137966
 C   -2.946417    0.736714    0.251094
 C   -0.283368   -0.016732    0.190973
 C    2.223247    0.203684   -0.014501
 C   -1.981841    1.662443    0.613702
 C   -0.646517    1.278872    0.580165
 C   -1.277855   -0.945164   -0.158710
 C    3.444697   -0.507983    0.006391
 C   -4.970331   -0.284295   -0.207860
 C   -3.862460   -1.313146   -0.464301
 N    4.618532    1.510142   -0.451297
 N    2.238336    1.516623   -0.237765
 N   -4.336034    0.877041    0.201299
 N    1.049847   -0.471099    0.178756
 O   -6.164724   -0.428078   -0.329624
Cl    3.489997   -2.219597    0.295534
 H    5.568195   -0.319580   -0.201563
 H    3.407570    3.156034   -0.643028
 H   -2.252282    2.671829    0.915664
 H    0.125633    1.986117    0.858231
 H   -0.997104   -1.954397   -0.456987
 H   -4.030953   -2.188573    0.169020
 H   -3.918480   -1.648226   -1.503851
 H   -4.852372    1.711617    0.436039
 H    1.151508   -1.474613    0.243414
