39 
5x72_ligand_xtb.xyz
 F   -0.986832    2.737555   -1.924484
 C   -0.950730    2.627781   -0.572749
 C   -1.448913    3.664188    0.190020
 C   -1.418452    3.546369    1.569267
 C   -0.894673    2.406853    2.154491
 C   -0.396912    1.379092    1.370737
 C   -0.414278    1.473725   -0.013668
 C    0.075364    0.363432   -0.942692
 N   -1.040521   -0.251904   -1.629637
 C   -1.858501   -1.051894   -0.865373
 C   -3.199946   -1.262386   -1.173310
 C   -3.964744   -2.102683   -0.388191
 C   -3.410484   -2.745627    0.710605
 C   -2.074799   -2.561548    1.006912
 C   -1.289242   -1.720934    0.226259
 C    0.160538   -1.625290    0.486448
 O    0.739405   -2.357631    1.264900
 N    0.820726   -0.662231   -0.249658
 C    2.225938   -0.537897   -0.186109
 C    3.026666   -1.673662   -0.251889
 C    4.402385   -1.553602   -0.197379
 C    4.994911   -0.306394   -0.091655
 C    4.200185    0.824942   -0.035304
 C    2.821891    0.714977   -0.077294
 H   -1.849346    4.539043   -0.296983
 H   -1.803299    4.346406    2.182420
 H   -0.870231    2.314415    3.229049
 H    0.017764    0.500726    1.840824
 H    0.731606    0.803065   -1.707036
 H   -1.493834    0.332097   -2.317305
 H   -3.633077   -0.759820   -2.026244
 H   -5.006431   -2.253759   -0.630743
 H   -4.018557   -3.394702    1.321441
 H   -1.606291   -3.067228    1.837452
 H    2.567770   -2.644897   -0.336704
 H    5.015649   -2.441003   -0.244991
 H    6.069981   -0.216308   -0.051228
 H    4.652092    1.802245    0.050536
 H    2.213818    1.605065   -0.009034
