78 
5x74_ligand_ani.xyz
 F    3.732617    2.142937    2.427630
 C    4.015217    2.752664    1.253438
 C    3.893066    4.131883    1.189597
 C    4.171283    4.768191   -0.016124
 C    4.561785    4.024659   -1.126617
 C    4.682129    2.641299   -1.030198
 C    4.406367    1.979628    0.166313
 C    4.518804    0.472685    0.303155
 N    5.743533    0.046398   -0.349376
 C    5.993694   -1.317631   -0.383682
 C    7.295231   -1.824755   -0.469575
 C    7.497157   -3.195969   -0.520942
 C    6.414605   -4.081003   -0.491786
 C    5.127027   -3.575619   -0.419648
 C    4.909386   -2.197560   -0.370419
 C    3.522457   -1.670171   -0.326234
 O    2.563233   -2.428303   -0.357894
 N    3.394079   -0.292947   -0.275246
 C    2.048597    0.329603   -0.257309
 C    1.083954   -0.145041   -1.370281
 C    0.004874   -1.159737   -0.975377
 C    1.393403    0.341775    1.137561
 C    0.461673   -0.837850    1.375514
 N   -0.613617   -0.791650    0.330080
 C   -1.806007   -1.599034    0.690447
 C   -2.788284   -0.776800    1.530987
 N   -3.595183    0.134753    0.708393
 C   -3.054238    1.348619    0.378754
 O   -1.852803    1.578201    0.574112
 C   -3.954576    2.361240   -0.207052
 C   -3.517283    3.672601   -0.410337
 C   -4.371605    4.618628   -0.949272
 C   -5.674337    4.247710   -1.297825
 C   -6.114975    2.945601   -1.115328
 C   -5.252495    1.989956   -0.567331
 N   -5.639331    0.669208   -0.430142
 C   -5.009675   -0.221783    0.516392
 C   -5.150941   -1.652134    0.020169
 C   -5.545172   -2.668524    0.881085
 F   -5.784120   -2.374502    2.179613
 C   -5.688392   -3.986412    0.476519
 C   -5.400771   -4.309218   -0.844989
 C   -4.980588   -3.319926   -1.730550
 C   -4.861051   -2.003016   -1.296947
 H    3.583181    4.682536    2.072805
 H    4.079797    5.848183   -0.087415
 H    4.778860    4.522085   -2.067861
 H    4.994928    2.048548   -1.885595
 H    4.558164    0.245302    1.383018
 H    6.549717    0.599884   -0.092720
 H    8.144226   -1.142523   -0.495797
 H    8.511101   -3.581886   -0.582399
 H    6.583252   -5.153772   -0.529437
 H    4.257795   -4.227754   -0.403042
 H    2.256977    1.372276   -0.506309
 H    1.664718   -0.536302   -2.208921
 H    0.561293    0.750832   -1.736854
 H    0.432224   -2.157732   -0.886514
 H   -0.776415   -1.178567   -1.745312
 H    0.788925    1.257180    1.218101
 H    2.164821    0.393178    1.910268
 H    0.992777   -1.789228    1.286682
 H    0.009891   -0.783312    2.372436
 H   -0.930558    0.201633    0.280500
 H   -2.308660   -1.923633   -0.226908
 H   -1.491180   -2.502433    1.228419
 H   -3.461600   -1.429714    2.089206
 H   -2.240424   -0.173680    2.260915
 H   -2.496254    3.921241   -0.133163
 H   -4.034866    5.640472   -1.101963
 H   -6.351997    4.984213   -1.721467
 H   -7.127918    2.662196   -1.400381
 H   -6.618624    0.490916   -0.592840
 H   -5.505529   -0.158054    1.496476
 H   -6.006649   -4.732812    1.198122
 H   -5.501133   -5.337036   -1.182062
 H   -4.752514   -3.572273   -2.762306
 H   -4.536516   -1.222742   -1.981234
