30 
5x9o_ligand_ani.xyz
 C   -2.685235   -1.511121   -0.385844
 C    2.338220    0.908479   -0.549943
 C   -3.678506    0.656716    0.055072
 C    3.705499   -0.758379    0.579104
 C    3.558902    0.298643   -0.333958
 C   -1.255178    0.429498   -0.093767
 C    5.763792   -0.341790   -0.346999
 C    2.620285   -1.228004    1.297580
 C    1.382537   -0.634047    1.071474
 C   -1.424144   -0.941077   -0.346115
 C    1.230559    0.417306    0.150303
 C   -3.795428   -0.706873   -0.176111
 C   -2.412833    1.212810    0.082919
 N    5.046687   -1.123690    0.552428
 N    4.817766    0.529969   -0.876375
 N   -0.011746    1.034009   -0.063272
 N   -5.131578   -1.303388   -0.212845
 O   -5.211435   -2.503017   -0.416337
 O    6.945514   -0.405460   -0.609834
 O   -6.084551   -0.563481   -0.037951
Cl   -2.258408    2.927271    0.347310
 H   -2.815014   -2.569104   -0.575355
 H    2.221450    1.730668   -1.253964
 H   -4.559545    1.269630    0.204035
 H    2.715676   -2.040261    2.012774
 H    0.512763   -0.982500    1.621654
 H   -0.554551   -1.563550   -0.528591
 H    5.486762   -1.854219    1.086496
 H    5.060336    1.215545   -1.572264
 H   -0.009867    2.034593   -0.207922
