41 
5x9p_ligand_ani.xyz
 C    1.300688   -0.111492   -0.475623
 C    3.448760   -1.751755    0.107035
 C   -3.869050    0.109566    0.237865
 C   -3.775536   -1.188435   -0.289827
 C   -1.433560   -1.215727    0.144614
 C    1.055864   -1.412872   -0.043279
 C   -5.967273   -0.521360   -0.446034
 C    1.131927    2.996540    0.587749
 C   -2.754015    0.754310    0.740875
 C   -1.538211    0.078064    0.691216
 C   -2.575956   -1.869990   -0.334306
 C    2.586178    0.443982   -0.534106
 C    3.671593   -0.420524   -0.246630
 C    2.164229   -2.242604    0.212058
 C   -0.244790    3.635492    0.681837
 C    1.632726    2.706321   -0.836086
 N   -5.201740    0.487160    0.129997
 N   -5.057065   -1.543927   -0.694477
 N   -0.223178   -1.917306    0.098693
 N    2.727196    1.763656   -0.857248
 N    5.056396    0.021172   -0.280020
 O    5.308698    1.207708   -0.504055
 O   -7.156973   -0.511866   -0.678872
 O   -1.069139    3.311395    1.495031
 O    5.923960   -0.809213   -0.077491
 O   -0.510201    4.636703   -0.188529
Cl    1.920876   -3.906245    0.665746
 H    0.460094    0.491187   -0.793080
 H    4.298555   -2.392766    0.307148
 H    1.090116    2.065753    1.159306
 H    1.853673    3.641507    1.105814
 H   -2.792864    1.760903    1.143747
 H   -0.657604    0.562746    1.107610
 H   -2.501627   -2.875326   -0.746569
 H    1.993823    3.620904   -1.320204
 H    0.823859    2.314281   -1.463420
 H   -5.606994    1.359876    0.424891
 H   -5.338484   -2.412782   -1.117603
 H   -0.287091   -2.925077    0.129424
 H    3.671539    2.113932   -0.827342
 H    0.254650    4.790809   -0.758842
