50 
5xaf_ligand_ani.xyz
 N    0.168968    1.560829    0.111871
 C   -1.052739    1.579986   -0.701231
 C   -1.242920    3.068350   -0.289628
 C    0.110232    2.909807    0.408522
 O    0.874114    3.642597    0.985384
 C    1.262116    0.677481    0.050553
 C    1.054614   -0.599213   -0.470978
 C    2.115086   -1.492870   -0.528313
 C    3.375594   -1.127451   -0.054043
 C    3.574211    0.171339    0.451386
 C    2.515333    1.074060    0.521529
 C   -2.158838    0.640931   -0.293729
 C   -2.111718   -0.083478    0.889515
 C   -3.173019   -0.911928    1.257746
 C   -4.283230   -1.013932    0.434870
 C   -4.340924   -0.287128   -0.768737
 C   -3.284013    0.534298   -1.119193
 O   -5.426827   -0.394107   -1.575338
 O   -5.390220   -1.782942    0.672491
 C   -5.423286   -2.521716    1.877407
 O    4.419910   -2.012203   -0.071057
 C    5.010603   -2.152088   -1.355639
 O    4.843528    0.451452    0.833198
 C    5.081844    1.718352    1.402938
 O    1.922867   -2.718911   -1.107103
 C    2.028169   -3.819244   -0.208927
 C   -1.362856    4.124659   -1.377561
 H   -0.835079    1.458123   -1.773811
 H   -2.045959    3.178834    0.447520
 H    0.075045   -0.905967   -0.818909
 H    2.644565    2.071290    0.925304
 H   -1.233478   -0.008781    1.523148
 H   -3.120616   -1.470831    2.185817
 H   -3.345572    1.091724   -2.049866
 H   -6.034676   -1.013663   -1.141741
 H   -5.362446   -1.859797    2.750532
 H   -6.377735   -3.049165    1.888804
 H   -4.603768   -3.250157    1.919001
 H    4.266551   -2.480598   -2.091259
 H    5.455581   -1.201924   -1.676068
 H    5.795452   -2.905550   -1.260381
 H    4.474044    1.869223    2.305348
 H    4.863959    2.522906    0.687745
 H    6.139835    1.740871    1.666586
 H    3.017794   -3.854680    0.256269
 H    1.866092   -4.718172   -0.807544
 H    1.256917   -3.757610    0.569557
 H   -2.341565    4.059307   -1.863110
 H   -1.260786    5.122582   -0.941704
 H   -0.589480    4.007846   -2.143858
