51 
5xag_ligand_ani.xyz
 C   -1.456403    3.883921   -1.046060
 O   -2.653034    3.600029   -1.751721
 C   -1.317546    2.819554    0.027749
 C    0.034153    2.686065    0.720206
 O    0.752834    3.416559    1.354651
 N    0.178592    1.366911    0.320927
 C    1.334293    0.580595    0.158301
 C    1.233687   -0.616674   -0.550236
 C    2.359143   -1.415154   -0.706627
 O    2.272655   -2.547198   -1.472262
 C    2.432576   -3.764268   -0.750409
 C    3.576827   -1.040027   -0.137671
 O    4.680662   -1.843296   -0.238953
 C    5.322688   -1.750527   -1.502820
 C    3.669342    0.183822    0.551428
 O    4.906867    0.493123    1.009049
 C    5.042078    1.684844    1.749275
 C    2.546951    0.992546    0.714980
 C   -1.056655    1.365126   -0.468099
 C   -2.112761    0.354166   -0.104003
 C   -3.326140    0.398970   -0.799050
 C   -4.333334   -0.502704   -0.505464
 O   -5.507249   -0.466850   -1.182436
 C   -4.134433   -1.460021    0.506503
 O   -5.205295   -2.289539    0.702742
 C   -5.094658   -3.267226    1.718047
 C   -2.938871   -1.500132    1.204883
 C   -1.928537   -0.587275    0.897080
 H   -0.583195    3.857169   -1.713944
 H   -1.487932    4.875313   -0.573093
 H   -2.741227    4.237549   -2.470407
 H   -2.153717    2.889372    0.729951
 H    0.288312   -0.937654   -0.971675
 H    2.360165   -4.567067   -1.487251
 H    3.405965   -3.802266   -0.252325
 H    1.633194   -3.880857   -0.007424
 H    6.155175   -2.457213   -1.484963
 H    5.709866   -0.736301   -1.660221
 H    4.628699   -2.012885   -2.310437
 H    6.090415    1.744620    2.043946
 H    4.407581    1.670629    2.645787
 H    4.780328    2.561353    1.141478
 H    2.596774    1.930352    1.255220
 H   -0.860358    1.329103   -1.551464
 H   -3.495660    1.149096   -1.564833
 H   -6.060135   -1.176567   -0.819547
 H   -6.039186   -3.812330    1.724363
 H   -4.935186   -2.803566    2.699731
 H   -4.273034   -3.964231    1.510339
 H   -2.779852   -2.232070    1.989227
 H   -0.991065   -0.606161    1.444403
