34 
5xg4_ligand_ani.xyz
 C    4.448121   -0.738965   -0.085438
 C    3.757933    0.452132    0.135398
 C    2.343439    0.462244    0.159213
 C    1.664982   -0.756432   -0.043483
 C    2.339909   -1.946340   -0.255146
 C    3.735526   -1.920390   -0.278854
 C    1.585460    1.689961    0.374545
 C    0.072793    1.562749    0.429673
 C   -0.371975    0.375972   -0.430711
 C   -1.862697    0.131664   -0.376194
 C   -2.706341    0.839154   -1.224736
 C   -4.083472    0.638580   -1.177600
 C   -4.615143   -0.258841   -0.266211
 C   -3.771966   -0.963671    0.605930
 C   -2.401263   -0.772241    0.540615
 O    0.306842   -0.801740    0.007091
 O    2.096630    2.800115    0.531120
 O   -4.292411   -1.836936    1.504236
 O   -5.951249   -0.533072   -0.126482
 O   -0.553497    2.723746   -0.035316
 O    4.360836   -3.103177   -0.497774
 O    4.466798    1.566634    0.318215
 H    5.533859   -0.716824   -0.101124
 H    1.806087   -2.876572   -0.405447
 H   -0.197859    1.333772    1.474489
 H   -0.087077    0.588710   -1.470802
 H   -2.289427    1.568547   -1.912841
 H   -4.742636    1.186015   -1.849010
 H   -1.759472   -1.342839    1.204517
 H   -5.255199   -1.830620    1.397797
 H   -6.455774   -0.018414   -0.768195
 H    0.011125    3.464693    0.227200
 H    5.316079   -2.962823   -0.495856
 H    3.836871    2.308348    0.448546
