30 
5xg5_ligand_ani.xyz
 O   -1.176207   -1.299992   -0.119200
 C    0.214002   -1.190725    0.116710
 O    0.539084   -1.493509    1.446972
 C    0.682743    0.237500   -0.179893
 N    2.083272    0.447247    0.121790
 C   -0.120214    1.238064    0.663042
 O    0.293033    2.560491    0.392552
 C   -1.605436    1.055984    0.386015
 O   -1.805792    1.449411   -0.957040
 C   -1.989301   -0.402069    0.646060
 C   -3.428144   -0.713480    0.264653
 O   -3.649244   -0.556226   -1.132568
 C    3.085429   -0.305815   -0.414782
 O    2.876120   -1.289344   -1.109061
 C    4.489834    0.167512   -0.104098
 H    0.694259   -1.893487   -0.566778
 H    0.239729   -2.396871    1.616352
 H    0.488686    0.431185   -1.243499
 H    2.304638    1.359846    0.499753
 H    0.077586    1.048400    1.722827
 H   -0.104785    2.790757   -0.463156
 H   -2.187618    1.705654    1.063236
 H   -2.611102    1.003830   -1.278691
 H   -1.851384   -0.605010    1.718648
 H   -3.681906   -1.732567    0.582659
 H   -4.105289   -0.014523    0.764437
 H   -2.994359   -1.126856   -1.563073
 H    4.542782    0.871372    0.731971
 H    4.910206    0.645794   -0.995124
 H    5.106223   -0.706723    0.118429
