70 
5xhs_ligand_ani.xyz
 C   -2.946180   -1.450368    0.019165
 O   -3.041591   -0.647186   -0.899312
 O   -3.690850   -2.562944    0.106157
 C   -4.625091   -2.751094   -0.974791
 C   -5.880571   -1.941227   -0.767561
 C   -6.194866   -0.868235   -1.598137
 C   -7.361415   -0.136130   -1.393732
 C   -8.216391   -0.470395   -0.348328
 C   -7.899188   -1.531336    0.496350
 C   -6.732048   -2.259250    0.289504
 C    0.326635   -1.202779    1.169147
 N   -2.103031   -1.355497    1.083623
 O    0.345259   -2.371275    1.514953
 C   -0.996631   -0.432688    1.049790
 C   -1.112223    0.680824    2.104820
 C   -2.132796    3.005980    2.467986
 C   -0.827273    3.756884    2.171839
 C   -2.255334    1.643780    1.774688
 C    0.737908    3.646317   -1.315298
 C    0.469349    2.429221   -2.203467
 C   -0.950810    1.943267   -2.048650
 C    0.549287    3.304190    0.155637
 O    1.336010    2.552639    0.732087
 N   -0.527192    3.873336    0.756410
 O   -1.093195    0.660181   -2.383005
 O   -1.859335    2.638899   -1.639611
 N    1.431207   -0.461579    0.846024
 C    2.737605   -0.910082    0.604684
 C    3.674990    0.054508    0.238187
 C    4.979726   -0.326796   -0.041272
 C    7.166779    0.405421   -0.706612
 C    7.594473   -0.993348   -0.631848
 C    6.764573   -1.989377   -0.282014
 C    5.376701   -1.666109    0.037324
 C    4.412614   -2.611938    0.415753
 C    3.109869   -2.258374    0.698982
 C    7.235385   -3.419279   -0.216177
 O    5.846179    0.658524   -0.395403
 O    7.861468    1.338477   -1.012418
 H   -4.836823   -3.823557   -0.951911
 H   -4.139908   -2.493867   -1.919976
 H   -5.510581   -0.598536   -2.400681
 H   -7.602861    0.695341   -2.051699
 H   -9.130037    0.097486   -0.187805
 H   -8.563428   -1.793772    1.316800
 H   -6.472263   -3.084245    0.951067
 H   -1.921925   -2.229023    1.560751
 H   -1.013998    0.048166    0.063983
 H   -1.249877    0.236435    3.098378
 H   -0.160900    1.219952    2.128559
 H   -2.981510    3.634874    2.164070
 H   -2.216071    2.889391    3.558132
 H    0.027358    3.251598    2.627526
 H   -0.880198    4.757409    2.616892
 H   -3.212095    1.180115    2.042931
 H   -2.293895    1.804736    0.689202
 H    1.772368    3.979119   -1.449538
 H    0.074096    4.468016   -1.596626
 H    1.153985    1.606536   -1.969396
 H    0.622203    2.683558   -3.259760
 H   -1.256724    4.224532    0.150815
 H   -1.975927    0.353506   -2.076977
 H    1.320334    0.544191    0.741265
 H    3.398296    1.102467    0.168206
 H    8.635745   -1.173864   -0.880307
 H    4.698783   -3.657568    0.487189
 H    2.380751   -3.002093    0.990168
 H    6.664827   -4.048019   -0.905873
 H    7.108628   -3.824060    0.792043
 H    8.292754   -3.490691   -0.483227
