41 
5xih_ligand_ani.xyz
 O    5.002449    1.075578   -0.844669
 C    4.490301    0.101697   -0.336947
 C    5.297719   -1.073386    0.166271
 C    4.615011   -2.412955   -0.094747
 C    3.183473   -2.386065    0.434372
 N    2.396646   -1.318970   -0.216821
 C    2.978298    0.049787   -0.083577
 C    2.225602    1.053329   -0.967956
 C    1.888533    2.363609   -0.246672
 C    0.915742    2.234896    0.931413
 N   -0.430728    1.771450    0.571082
 C   -0.703918    0.410296    0.598097
 O    0.168824   -0.415251    0.852526
 C   -2.091564    0.060627    0.276409
 C   -2.502008   -1.281682    0.305226
 C   -3.799632   -1.589142   -0.002485
 F   -4.238633   -2.851197    0.013516
 C   -4.708422   -0.571332   -0.345942
 F   -5.963977   -0.924849   -0.639102
 C   -4.322046    0.740818   -0.378242
 C   -2.992702    1.079769   -0.059794
 N   -2.621216    2.415880   -0.086251
 C   -1.407781    2.684454    0.227811
 H    5.405310   -0.928243    1.251483
 H    6.296593   -1.013837   -0.271977
 H    5.168287   -3.224629    0.387744
 H    4.602102   -2.628518   -1.170675
 H    3.211954   -2.196324    1.513032
 H    2.689556   -3.348024    0.284321
 H    2.324765   -1.535339   -1.232009
 H    1.442259   -1.284409    0.175334
 H    2.869043    0.318560    0.972508
 H    1.310601    0.590574   -1.349251
 H    2.844990    1.285805   -1.840868
 H    1.476533    3.074514   -0.972639
 H    2.819083    2.808668    0.130823
 H    1.290213    1.537124    1.680956
 H    0.804743    3.208628    1.417830
 H   -1.805510   -2.068618    0.572953
 H   -5.032171    1.516861   -0.642924
 H   -1.077598    3.722170    0.245298
