41 
5xih_ligand_dft.xyz
 O    4.977966    0.970107   -0.978910
 C    4.460908    0.049828   -0.398222
 C    5.224408   -1.128244    0.167768
 C    4.491263   -2.459517   -0.046489
 C    3.047354   -2.386021    0.425867
 N    2.331704   -1.283765   -0.291888
 C    2.944362    0.081093   -0.116866
 C    2.178700    1.118006   -0.944635
 C    1.886568    2.411732   -0.178266
 C    0.916511    2.270414    0.999051
 N   -0.412215    1.781237    0.608195
 C   -0.689543    0.430206    0.659987
 O    0.191819   -0.386463    0.989390
 C   -2.045308    0.069275    0.307984
 C   -2.453424   -1.276037    0.360042
 C   -3.740482   -1.591260    0.015236
 F   -4.172713   -2.845633    0.051851
 C   -4.642175   -0.584479   -0.389713
 F   -5.871828   -0.947708   -0.714201
 C   -4.259951    0.733260   -0.443819
 C   -2.944531    1.077706   -0.089519
 N   -2.573994    2.408013   -0.136769
 C   -1.374419    2.692146    0.209201
 H    5.349847   -0.945949    1.244677
 H    6.220516   -1.138352   -0.278864
 H    4.997759   -3.260477    0.498265
 H    4.518530   -2.740161   -1.106874
 H    2.971409   -2.157333    1.492568
 H    2.498490   -3.309513    0.231132
 H    2.269394   -1.504970   -1.289732
 H    1.357257   -1.174350    0.082972
 H    2.830162    0.274824    0.956179
 H    1.233133    0.688664   -1.296580
 H    2.770958    1.363351   -1.830237
 H    1.485935    3.145281   -0.886334
 H    2.824695    2.832457    0.201232
 H    1.289674    1.587784    1.763942
 H    0.779137    3.243729    1.476202
 H   -1.769190   -2.050535    0.684833
 H   -4.959841    1.501089   -0.750895
 H   -1.045171    3.728335    0.202416
