60 
5xiw_ligand_ani.xyz
 O   -4.076679   -3.293920    0.891226
 C   -4.087794   -2.365978    0.097871
 C   -5.260239   -2.061218   -0.813286
 N   -3.025360   -1.516516   -0.063197
 C   -1.956121   -1.487025    0.928095
 C   -1.313745   -0.092736    1.106988
 C   -2.382235    0.971162    1.462224
 C   -0.966710   -2.635992    0.703583
 C   -0.106332   -2.542413   -0.559340
 C    1.104693   -1.650488   -0.382201
 C    2.371450   -2.212416   -0.540574
 C    3.544292   -1.488509   -0.327495
 C    3.438551   -0.159094    0.097746
 C    2.170593    0.404012    0.265767
 O    2.086695    1.696291    0.725888
 C    2.412788    2.664350   -0.259717
 O    4.563342    0.602652    0.327064
 C    4.794995    0.865736    1.706380
 O    4.715696   -2.165954   -0.468837
 C    5.824587   -1.513517   -1.076485
 C    0.989371   -0.304449   -0.010256
 C   -0.338506    0.440144    0.018297
 C   -0.930842    0.586274   -1.400785
 C   -1.564447    1.957406   -1.711542
 C   -2.356537    2.630784   -0.567034
 C   -3.081220    1.563878    0.254496
 O   -4.170791    1.179525   -0.121945
 O   -1.541795    3.382125    0.311131
 C   -1.123792    4.617801   -0.216980
 H   -5.505621   -0.994703   -0.791280
 H   -5.018939   -2.330609   -1.848017
 H   -6.118677   -2.650331   -0.487566
 H   -3.225934   -0.658177   -0.554940
 H   -2.435160   -1.720565    1.890688
 H   -0.692039   -0.217214    2.005344
 H   -1.899976    1.786396    2.006239
 H   -3.145943    0.529585    2.106886
 H   -0.314302   -2.705874    1.583174
 H   -1.570146   -3.548960    0.680749
 H    0.248277   -3.543221   -0.825668
 H   -0.718014   -2.202471   -1.402048
 H    2.476297   -3.252338   -0.835955
 H    1.862173    2.461104   -1.188965
 H    3.487217    2.665480   -0.466125
 H    2.103872    3.634712    0.139209
 H    4.983629   -0.071207    2.245095
 H    5.681506    1.502753    1.757351
 H    3.940933    1.384522    2.151316
 H    6.317187   -0.825184   -0.383591
 H    5.516168   -0.966309   -1.976115
 H    6.515697   -2.310986   -1.360007
 H   -0.084065    1.448302    0.356483
 H   -1.652670   -0.209372   -1.594216
 H   -0.126369    0.422073   -2.128220
 H   -2.231874    1.847047   -2.572908
 H   -0.773121    2.653263   -2.014179
 H   -3.133955    3.283828   -0.990729
 H   -1.980431    5.223050   -0.552613
 H   -0.430530    4.497802   -1.062419
 H   -0.606226    5.151177    0.584675
