89 
5xpl_ligand_xtb.xyz
 O    2.595203    1.169013   -2.425552
 C    3.710727    0.778083   -2.150243
 C    4.626010    1.589533   -1.316201
 C    6.014301    1.454948   -1.332468
 C    6.803695    2.217981   -0.499832
 C    6.221287    3.132767    0.376250
 O    7.035282    3.846021    1.190729
 C    4.838296    3.288866    0.385975
 C    4.055876    2.529940   -0.457036
 C    4.195112   -0.586117   -2.591907
 C    4.572968   -1.473824   -1.398730
 C    3.535004   -1.457458   -0.265125
 C    4.148890   -2.056593    1.008532
 C    5.101770   -1.110560    1.744931
 C    4.394975    0.051595    2.439060
 C    5.374834    0.900032    3.240210
 C    2.211417   -2.146072   -0.679392
 C    2.376282   -3.665753   -0.723824
 C    1.053332   -1.706945    0.236153
 C   -0.363747   -2.248857   -0.080290
 C   -0.680880   -2.146271   -1.573965
 C   -0.670397   -3.652563    0.449012
 C   -2.163884   -3.964099    0.348553
 C   -3.025268   -2.912686    1.055411
 C    0.858541   -0.168858    0.237559
 C   -0.651523    0.103239    0.350013
 C   -1.229371   -1.252688    0.731978
 C   -2.693573   -1.527201    0.574221
 C   -3.567067   -0.633744    0.093394
 C   -4.987332   -0.823629   -0.063451
 C   -5.875761    0.084607   -0.486711
 C   -7.340687   -0.239841   -0.558098
 C   -8.119075    0.690686    0.394023
 O   -7.725324    0.510282    1.740341
 C   -5.582581    1.508360   -0.843957
 C   -6.361929    2.449117    0.095735
 O   -6.046752    3.774239   -0.262107
 C   -7.828748    2.114661   -0.001183
 C   -8.758101    2.944692   -0.442581
 H    6.490125    0.771156   -2.018129
 H    7.878175    2.124642   -0.507209
 H    6.514083    4.444125    1.740712
 H    4.382642    4.004396    1.057648
 H    2.981664    2.642389   -0.457423
 H    5.060939   -0.467770   -3.246909
 H    3.396541   -1.045748   -3.176455
 H    5.522991   -1.128429   -0.990515
 H    4.726476   -2.492939   -1.758573
 H    3.306090   -0.410627   -0.061117
 H    4.692081   -2.967461    0.748309
 H    3.353974   -2.335660    1.700967
 H    5.640429   -1.687368    2.501481
 H    5.845750   -0.706834    1.055088
 H    3.905037    0.684344    1.697031
 H    3.624485   -0.340684    3.106937
 H    6.147573    1.303273    2.589213
 H    4.860036    1.728822    3.721546
 H    5.856734    0.302828    4.011513
 H    1.977903   -1.799490   -1.688540
 H    1.594211   -4.121391   -1.323333
 H    3.327271   -3.937118   -1.175164
 H    2.341328   -4.093197    0.274682
 H    1.291627   -2.027230    1.256606
 H   -0.284885   -3.005101   -2.111362
 H   -1.755632   -2.106376   -1.734424
 H   -0.247457   -1.248150   -2.002247
 H   -0.360803   -3.716138    1.496127
 H   -0.122127   -4.413821   -0.104292
 H   -2.357864   -4.943688    0.792824
 H   -2.455320   -4.017074   -0.701458
 H   -2.825319   -2.960218    2.131236
 H   -4.076447   -3.154274    0.905428
 H    1.247985    0.268896   -0.680531
 H    1.392058    0.279554    1.076020
 H   -0.877319    0.866864    1.093970
 H   -1.047755    0.436313   -0.607632
 H   -0.989165   -1.424817    1.790685
 H   -3.188330    0.335240   -0.193972
 H   -5.367797   -1.807972    0.178969
 H   -7.527303   -1.282666   -0.287100
 H   -7.717925   -0.075494   -1.570978
 H   -9.199658    0.489818    0.297266
 H   -7.660778   -0.434154    1.918536
 H   -4.525168    1.750775   -0.770462
 H   -5.910046    1.718203   -1.866009
 H   -6.039259    2.246825    1.130803
 H   -6.538494    4.368578    0.313858
 H   -9.792873    2.654320   -0.506594
 H   -8.518097    3.942003   -0.770418
