82 
5xpn_ligand_ani.xyz
 O  -10.809141   -2.456096   -0.585639
 C   -9.609946   -1.890102   -0.274155
 C   -9.558518   -0.498687   -0.187239
 C   -8.359207    0.125338    0.127024
 C   -8.458215   -2.642929   -0.044330
 C   -7.265686   -2.003189    0.273361
 C   -7.197079   -0.612862    0.362147
 C   -5.877032    0.082507    0.655893
 O   -5.097645   -0.640619    1.590862
 C   -5.639621   -0.642192    2.889979
 C   -5.031633    0.246339   -0.604329
 C   -3.718878    0.993902   -0.361586
 C   -2.898607    1.144555   -1.644622
 C   -1.579253    1.939797   -1.504962
 C   -1.875485    3.398870   -1.137280
 C   -0.602502    1.265654   -0.528322
 C    0.808990    1.885639   -0.353183
 C    1.455105    2.197511   -1.708076
 C    0.890561    3.095201    0.589099
 C    2.337504    3.423207    0.997156
 C    3.079075    2.207208    1.573060
 C   -0.324894   -0.220710   -0.885335
 C    1.129756   -0.526796   -0.454894
 C    1.532619    0.708663    0.355871
 C    2.969284    1.018266    0.652178
 C    4.010925    0.329277    0.135489
 C    5.411062    0.695579    0.279742
 C    6.462638    0.021470   -0.228745
 C    6.369729   -1.201742   -1.087477
 C    7.034228   -2.390056   -0.389347
 O    6.952152   -3.506264   -1.257034
 C    7.875743    0.382829    0.136720
 C    8.541040   -0.801697    0.855974
 O    7.848203   -1.121641    2.057892
 C    8.455063   -2.019934   -0.025661
 C    9.521972   -2.681431   -0.457704
 H  -10.706992   -3.415864   -0.609867
 H  -10.464402    0.072886   -0.366886
 H   -8.330710    1.211554    0.198589
 H   -8.494517   -3.729572   -0.108332
 H   -6.374873   -2.594007    0.473248
 H   -6.098813    1.080696    1.074447
 H   -5.797090    0.381971    3.264730
 H   -6.597723   -1.180325    2.930863
 H   -4.919828   -1.147811    3.539340
 H   -5.627146    0.770483   -1.364077
 H   -4.822889   -0.755804   -1.003035
 H   -3.141199    0.454903    0.397902
 H   -3.941701    1.984025    0.061104
 H   -2.691858    0.145016   -2.051883
 H   -3.519074    1.650007   -2.399570
 H   -1.113593    1.924817   -2.501104
 H   -2.734688    3.776604   -1.703886
 H   -2.115158    3.500647   -0.071525
 H   -1.033279    4.061778   -1.355577
 H   -1.058207    1.296640    0.475741
 H    1.358689    1.363596   -2.412289
 H    2.522553    2.408149   -1.602733
 H    0.988343    3.074196   -2.170655
 H    0.307590    2.873243    1.495843
 H    0.439249    3.983026    0.133847
 H    2.890193    3.795729    0.124261
 H    2.337868    4.240078    1.728503
 H    2.616476    1.936628    2.533926
 H    4.116860    2.464502    1.798983
 H   -0.445110   -0.389377   -1.962322
 H   -1.049473   -0.872824   -0.383180
 H    1.767575   -0.638663   -1.339130
 H    1.217952   -1.450024    0.126580
 H    1.032575    0.629889    1.334752
 H    3.795700   -0.579310   -0.424117
 H    5.620430    1.603250    0.843432
 H    5.338181   -1.461972   -1.342565
 H    6.899759   -1.036741   -2.034514
 H    6.492327   -2.581813    0.548628
 H    7.176066   -4.285736   -0.733231
 H    8.455236    0.596564   -0.770138
 H    7.910074    1.278925    0.771082
 H    9.598663   -0.579940    1.071623
 H    7.766153   -0.313910    2.581408
 H   10.528725   -2.386251   -0.170152
 H    9.420095   -3.539797   -1.115369
