79 
5xpp_ligand_ani.xyz
 O   10.821998   -2.854760   -0.109516
 C    9.744822   -2.027526   -0.208851
 C    8.715874   -2.411980   -1.069303
 C    7.595143   -1.604522   -1.203591
 C    9.642163   -0.834023    0.506540
 C    8.513816   -0.036230    0.359359
 C    7.474900   -0.408733   -0.492665
 C    6.222307    0.440249   -0.602224
 O    6.519236    1.829074   -0.565285
 C    5.248548    0.159241    0.537487
 C    3.956682    0.969215    0.438615
 C    2.996022    0.651080    1.587558
 C    1.626420    1.367845    1.537025
 C    1.825155    2.887506    1.545909
 C    0.763767    0.879754    0.360766
 C   -0.670807    1.454311    0.216141
 C   -1.417182    1.440539    1.555880
 C   -0.770192    2.829641   -0.458032
 C   -2.211941    3.170389   -0.871673
 C   -2.858928    2.075424   -1.733986
 C    0.557636   -0.661532    0.369717
 C   -0.849560   -0.935205   -0.211555
 C   -1.278551    0.423590   -0.772985
 C   -2.712095    0.713228   -1.104265
 C   -3.726283   -0.146905   -0.866364
 C   -5.119250    0.067045   -1.231474
 C   -6.140250   -0.779277   -0.985511
 C   -7.551666   -0.462920   -1.389304
 C   -6.021923   -2.054024   -0.202960
 C   -6.888394   -1.973273    1.065264
 O   -6.359329   -1.027078    1.988534
 C   -8.312949   -1.647042    0.663153
 C   -9.340378   -2.431077    0.974570
 C   -8.460278   -0.381581   -0.159687
 O   -9.780090   -0.167008   -0.617766
 H   11.453131   -2.476683    0.515703
 H    8.813345   -3.341961   -1.621755
 H    6.800406   -1.909781   -1.882391
 H   10.444916   -0.528453    1.176678
 H    8.438778    0.899763    0.907605
 H    5.721383    0.194663   -1.554386
 H    7.090094    2.017862   -1.320702
 H    5.020448   -0.914915    0.543736
 H    5.755922    0.378777    1.486738
 H    3.476918    0.761787   -0.528798
 H    4.210935    2.035676    0.435944
 H    2.843830   -0.436587    1.638285
 H    3.490545    0.926155    2.530675
 H    1.105469    1.084855    2.463546
 H    2.604591    3.172305    2.262679
 H    0.917495    3.426857    1.831063
 H    2.138546    3.250548    0.558875
 H    1.281334    1.150553   -0.574438
 H   -1.048717    2.230960    2.218687
 H   -1.298159    0.487436    2.083033
 H   -2.489962    1.598225    1.415591
 H   -0.132617    2.827009   -1.355114
 H   -0.389577    3.620631    0.196483
 H   -2.224816    4.124012   -1.412665
 H   -2.825407    3.322500    0.026133
 H   -3.904011    2.325844   -1.931854
 H   -2.356640    2.054011   -2.712923
 H    1.343591   -1.153966   -0.214842
 H    0.632746   -1.056399    1.390102
 H   -1.528760   -1.260742    0.584703
 H   -0.849890   -1.717589   -0.977018
 H   -0.717078    0.578067   -1.708987
 H   -3.489770   -1.092221   -0.384982
 H   -5.354155    0.995836   -1.749042
 H   -7.618809    0.473012   -1.955972
 H   -7.948911   -1.261536   -2.028260
 H   -6.384430   -2.890255   -0.814079
 H   -4.986335   -2.274226    0.074165
 H   -6.877689   -2.927491    1.600240
 H   -6.071755   -0.260154    1.474589
 H  -10.347809   -2.200683    0.641139
 H   -9.207139   -3.336171    1.563646
 H   -8.134819    0.474285    0.456212
 H  -10.327455   -0.012878    0.162896
