79 
5xpp_ligand_dft.xyz
 O   11.024391   -2.521626   -0.019925
 C    9.868680   -1.816512   -0.156827
 C    8.835350   -2.410655   -0.881487
 C    7.639446   -1.728134   -1.056749
 C    9.691695   -0.544054    0.386803
 C    8.485556    0.124175    0.206226
 C    7.443856   -0.455912   -0.516088
 C    6.120994    0.268013   -0.674948
 O    6.300807    1.668737   -0.822137
 C    5.211443    0.064725    0.535873
 C    3.847484    0.736855    0.386858
 C    2.947354    0.482992    1.598110
 C    1.599961    1.235821    1.595386
 C    1.829702    2.747112    1.717633
 C    0.737910    0.848028    0.380663
 C   -0.695299    1.438019    0.259748
 C   -1.454789    1.317152    1.590664
 C   -0.791351    2.869559   -0.292780
 C   -2.229908    3.237036   -0.684747
 C   -2.867303    2.217079   -1.645665
 C    0.517504   -0.689536    0.281111
 C   -0.877699   -0.912787   -0.348436
 C   -1.289587    0.480710   -0.816041
 C   -2.723852    0.800118   -1.138009
 C   -3.724241   -0.081161   -0.971329
 C   -5.138338    0.149717   -1.244157
 C   -6.150871   -0.709501   -1.024578
 C   -7.580544   -0.327631   -1.325790
 C   -6.020284   -2.059170   -0.360332
 C   -6.824839   -2.038832    0.956103
 O   -6.249181   -1.123322    1.875163
 C   -8.265884   -1.695582    0.635457
 C   -9.270924   -2.539449    0.847615
 C   -8.433263   -0.354434   -0.046555
 O   -9.760805   -0.051809   -0.413498
 H   11.649883   -2.004891    0.501637
 H    8.990168   -3.397209   -1.305541
 H    6.840788   -2.195805   -1.628702
 H   10.496198   -0.073940    0.949073
 H    8.348588    1.117114    0.624773
 H    5.606501   -0.138505   -1.562773
 H    6.912684    1.806227   -1.555625
 H    5.086455   -1.014556    0.692716
 H    5.729200    0.455631    1.421668
 H    3.364577    0.359185   -0.525056
 H    3.999313    1.810754    0.237923
 H    2.768047   -0.596238    1.687487
 H    3.492004    0.771308    2.508109
 H    1.066064    0.907290    2.498896
 H    2.604107    2.960474    2.463230
 H    0.922411    3.269572    2.033356
 H    2.152194    3.186737    0.767074
 H    1.274655    1.176491   -0.521823
 H   -1.109481    2.073353    2.304185
 H   -1.308839    0.337649    2.057806
 H   -2.532097    1.450544    1.455014
 H   -0.143908    2.948744   -1.178297
 H   -0.422094    3.602706    0.430601
 H   -2.240390    4.227665   -1.153296
 H   -2.849362    3.314934    0.216758
 H   -3.909557    2.489439   -1.829415
 H   -2.349823    2.283303   -2.614470
 H    1.310265   -1.157485   -0.311248
 H    0.565077   -1.147132    1.275789
 H   -1.577005   -1.292871    0.404356
 H   -0.866080   -1.637021   -1.168300
 H   -0.715364    0.692304   -1.734757
 H   -3.458462   -1.068535   -0.604188
 H   -5.401614    1.108578   -1.686632
 H   -7.644223    0.665879   -1.780132
 H   -8.028370   -1.045901   -2.026413
 H   -6.436330   -2.837473   -1.012885
 H   -4.984315   -2.325943   -0.139172
 H   -6.779476   -3.022267    1.434308
 H   -5.860708   -0.401729    1.359919
 H  -10.284636   -2.307314    0.534845
 H   -9.109334   -3.501687    1.326412
 H   -8.042516    0.419772    0.634401
 H  -10.274648    0.032432    0.399173
