55 
5xs8_ligand_dft.xyz
 C   -2.224040    0.858185   -0.610181
 C   -3.073912    1.834389    0.202799
 C   -2.971870    3.268872   -0.327923
 C   -1.520385    3.622237   -0.459604
 C   -0.708732    2.678610   -0.941058
 C    0.754386    2.828599   -1.114345
 O   -4.401674    1.370364    0.175455
 O   -3.716362    4.141592    0.498409
 O   -1.174453    1.474619   -1.362326
 O    1.214740    4.009922   -0.719058
 O    1.461109    1.956018   -1.591111
 C   -0.625875   -3.605656   -0.262736
 C   -1.426878   -2.436432    0.353004
 C   -0.975447   -1.119779   -0.287964
 C    0.517991   -0.941281   -0.089176
 C    1.222635   -2.155248   -0.689298
 C    2.730337   -2.118505   -0.488914
 C   -3.573319   -2.427903   -0.880965
 C   -5.067805   -2.288926   -0.689421
 N   -2.861147   -2.620923    0.267037
 O   -0.897755   -4.817816    0.333078
 O   -1.697765   -0.055570    0.294514
 O    0.846224   -0.941871    1.316571
 O    0.767610   -3.352139   -0.104550
 O    3.206831   -0.986066   -1.246491
 O   -3.036384   -2.324212   -1.976569
 O    5.589044   -0.431113   -0.703463
 O    4.024482    1.238106   -1.536824
 O    3.738812    0.358927    0.764209
 S    4.240103    0.031426   -0.560700
 S    0.730041    0.402923    2.197095
 O    0.760061    1.554618    1.322735
 O    2.106781    0.276973    2.969868
 O   -0.308572    0.237533    3.173599
 H   -2.832807    0.352511   -1.366433
 H   -2.668745    1.827390    1.227321
 H   -3.462086    3.311824   -1.308688
 H   -1.146876    4.588645   -0.143926
 H   -4.939824    2.071909    0.568532
 H   -3.268975    4.191490    1.354392
 H    2.178624    4.011465   -0.826676
 H   -0.876226   -3.712059   -1.324702
 H   -1.176810   -2.391125    1.418350
 H   -1.169123   -1.163972   -1.364233
 H    0.862311   -0.015802   -0.553629
 H    1.015858   -2.146206   -1.771843
 H    3.195252   -3.018470   -0.893114
 H    2.971353   -2.013033    0.570665
 H   -5.452978   -2.952801    0.090401
 H   -5.280177   -1.252162   -0.402459
 H   -5.568020   -2.503142   -1.634075
 H   -3.368926   -2.567926    1.135821
 H   -0.613586   -4.759904    1.255807
 H    3.070236    1.535403   -1.541373
 H    2.832906    0.340780    2.308629
