35 
5xsu_ligand_ani.xyz
 C   -3.729564    2.098026    0.002196
 C   -3.372953    0.638811    0.003032
 C   -4.426230   -0.260010    0.010528
 C   -4.185295   -1.641482    0.003512
 C   -2.916675   -2.184183   -0.009776
 C   -1.840579   -1.282962   -0.013673
 C    0.027171   -0.309117   -0.011817
 C    1.448284   -0.060832   -0.001980
 C    2.140004    1.110117    0.080506
 C    3.515897    0.748627    0.057469
 C    3.536713   -0.603860   -0.034036
 C    4.744314   -1.470218   -0.094513
 C    5.918054    0.684591   -0.384838
 C    4.770755    1.571086    0.099774
 C   -2.051660    0.126180   -0.003229
 F   -5.238374   -2.468415    0.010477
 N   -2.685931    2.960044   -0.061268
 N   -0.496291   -1.525106   -0.021881
 N    5.904983   -0.633486    0.360773
 N   -0.829260    0.728034   -0.000208
 O   -4.895763    2.458923    0.048333
 O    2.292418   -1.126966   -0.076328
 H   -5.441330    0.118783    0.021164
 H   -2.775781   -3.260682   -0.014511
 H    1.703767    2.100739    0.145354
 H    4.906248   -1.811968   -1.121181
 H    4.636717   -2.351474    0.534498
 H    6.886607    1.167557   -0.261748
 H    5.766803    0.475246   -1.444612
 H    4.959979    1.939135    1.117115
 H    4.690401    2.454786   -0.538391
 H   -2.888043    3.945965   -0.032938
 H   -1.732633    2.617383   -0.053738
 H    6.804247   -1.123675    0.245543
 H    5.731205   -0.406762    1.372275
