40 
5y0f_ligand_dft.xyz
 C   -1.047423    1.285273   -1.506725
 C   -1.392959   -1.439304    0.959887
 C   -0.093787    1.869886   -0.605502
 C    1.186737    1.272891   -0.457700
 C   -3.276710    1.310472   -2.314953
 C   -0.422675    3.019035    0.150542
 C    0.489694    3.570780    1.014978
 C    1.773482    3.004260    1.137391
 C    2.118344    1.886389    0.417537
 C    0.979302   -1.203534    1.411074
 C   -0.065334   -1.771891    0.688304
 N    2.311126   -1.366908    0.975735
 C   -0.719263    0.179125   -2.256894
 C    1.444339    0.058292   -1.171805
 C   -1.638387   -0.609175    2.050658
 C   -0.625710   -0.105193    2.844728
 C    0.690240   -0.382648    2.504859
 C   -2.423471   -1.930575   -0.020521
 C    0.520873   -0.450470   -2.049663
 F   -2.915166   -0.257850    2.364330
 O   -2.246235    1.892946   -1.534298
 O    4.033678   -0.412056   -0.554340
 O    2.572741   -2.281123   -1.410889
 O   -3.692615   -1.528894    0.154982
 O   -2.128668   -2.618730   -0.964371
 S    2.730367   -1.054005   -0.654363
 H   -3.013700    1.309082   -3.378778
 H   -3.490709    0.288505   -1.982220
 H   -4.153950    1.938426   -2.160363
 H   -1.406432    3.456973    0.029597
 H    0.229542    4.453666    1.590447
 H    2.503930    3.463124    1.797186
 H    3.120636    1.479711    0.492762
 H    0.133860   -2.436071   -0.144962
 H    3.009080   -0.937759    1.572894
 H   -1.426417   -0.278972   -2.935709
 H   -0.871642    0.536169    3.682765
 H    1.496425    0.075407    3.069896
 H    0.721171   -1.396042   -2.540677
 H   -3.774029   -0.997961    0.962017
