40 
5y0x_ligand_dft.xyz
 C    0.655874    2.677976    1.440267
 C   -0.873429    0.839003    1.831184
 C    0.448280    0.233148   -1.466807
 C    1.046329    1.476669   -1.802325
 C   -1.111440    2.420981   -2.357855
 C   -0.961637    0.114941   -1.628957
 C   -3.703009   -2.133097   -0.813473
 C   -1.618155   -1.119068   -1.309752
 C   -0.889325   -2.215746   -0.911865
 C    0.499849   -2.094463   -0.736815
 C    1.159839   -0.912400   -0.969156
 C    1.514620    0.432376    1.607911
 C    1.730646    1.793052    1.423540
 C   -0.636703    2.200587    1.605317
 C   -2.264046    0.287006    1.936091
 C    0.218782   -0.014425    1.875200
 C    0.286084    2.536123   -2.231837
 C   -1.722803    1.226445   -2.069442
 F    0.045047   -1.324591    2.080084
 N    2.553509   -0.506181    1.368024
 O   -2.955948   -1.092326   -1.422541
 O    3.550455    0.265235   -0.849793
 O    3.375745   -2.194582   -0.286227
 O   -2.618052   -0.531087    2.741356
 O   -3.130629    0.785211    1.028241
 S    2.816678   -0.854228   -0.289757
 H    0.826570    3.737836    1.287541
 H    2.119143    1.580868   -1.715122
 H   -1.699479    3.266111   -2.702284
 H   -3.550824   -3.086316   -1.332353
 H   -3.436388   -2.228746    0.244676
 H   -4.747360   -1.835818   -0.900424
 H   -1.367863   -3.159985   -0.685031
 H    1.056654   -2.947553   -0.363753
 H    2.741184    2.130776    1.221469
 H   -1.477337    2.887831    1.579927
 H    0.773863    3.473548   -2.481164
 H   -2.792897    1.102853   -2.196744
 H    2.406540   -1.393684    1.841726
 H   -2.649751    1.250271    0.325071
