40 
5y0x_ligand_ani.xyz
 C   -2.309468   -0.402839    2.291507
 C   -3.579063    0.681931    0.541716
 C    2.174457   -0.522582    0.469377
 C    2.150291   -1.333689    1.636817
 C    3.611515    0.211220    2.794286
 C    2.950772    0.665496    0.510588
 C    3.858491    3.498765   -1.622704
 C    3.019078    1.508990   -0.649925
 C    2.358731    1.163437   -1.802024
 C    1.591725   -0.013651   -1.843643
 C    1.462016   -0.830855   -0.747513
 C   -1.828082   -0.936874   -0.004329
 C   -1.578018   -1.122453    1.350528
 C   -3.288348    0.497672    1.898324
 C   -4.695688    1.595633    0.105799
 C   -2.846856   -0.051317   -0.374265
 C    2.849298   -0.972020    2.761365
 C    3.662725    1.016845    1.688519
 F   -3.074187    0.079028   -1.698572
 N   -1.159719   -1.602386   -1.044145
 O    3.773849    2.626035   -0.513060
 O    0.457173   -3.154268    0.111781
 O    0.603091   -2.694868   -2.368428
 O   -5.483437    1.346402   -0.763374
 O   -4.777740    2.752396    0.804147
 S    0.383914   -2.234013   -1.009058
 H   -2.102429   -0.547321    3.347473
 H    1.580735   -2.252040    1.629970
 H    4.157864    0.477933    3.695959
 H    4.312704    3.001237   -2.488858
 H    2.869796    3.883252   -1.903659
 H    4.493573    4.325549   -1.303498
 H    2.417623    1.779317   -2.692585
 H    1.105245   -0.284395   -2.776921
 H   -0.839292   -1.848594    1.666024
 H   -3.865945    1.034787    2.647544
 H    2.813244   -1.613472    3.637429
 H    4.245241    1.931683    1.687541
 H   -1.507731   -1.414577   -1.975162
 H   -4.002487    2.848460    1.374769
