37 
5y3o_ligand_dft.xyz
 C    0.470655   -0.625066   -1.787688
 C    3.305431    0.323792    0.558204
 C    3.960435   -1.302622   -1.035306
 C    0.935197    1.194534    0.577954
 C    5.689247   -0.546055    0.648259
 N   -2.093161    0.954451   -1.350185
 C   -3.259932    1.443756   -0.936544
 N   -4.094216    0.910240    0.003039
 C   -3.713066   -0.196161    0.581378
 C   -2.511009   -0.833437    0.270406
 C   -1.760717   -0.179554   -0.725736
 C   -1.724024   -1.965337    0.625202
 N   -0.615702   -1.999197   -0.076441
 N   -0.639510   -0.911999   -0.900858
 C    1.807032   -0.540087   -1.078766
 C    2.021524    0.322256    0.006625
 C    4.310986   -0.503717    0.047818
 N    2.752336   -1.326404   -1.594207
 O    3.568770    1.119384    1.644719
 C    4.189468    2.352339    1.320415
Cl   -4.770395   -0.880810    1.785707
 N   -3.682091    2.615950   -1.475152
 H    0.218083    0.318579   -2.282338
 H    0.546998   -1.408762   -2.544249
 H    4.700410   -1.972392   -1.471614
 H    0.241109    0.599130    1.182394
 H    1.355659    1.961811    1.229447
 H    0.349343    1.682964   -0.207407
 H    6.336797    0.233808    0.229408
 H    5.645679   -0.393789    1.730023
 H    6.168061   -1.509106    0.449284
 H   -1.933449   -2.735744    1.353653
 H    5.161418    2.200518    0.835128
 H    3.552227    2.952266    0.657718
 H    4.335926    2.883001    2.262541
 H   -3.214783    2.949576   -2.302209
 H   -4.637876    2.887704   -1.313256
