37 
5y3o_ligand_xtb.xyz
 C    0.459830   -0.700166   -1.771592
 C    3.286944    0.365866    0.535251
 C    3.897793   -1.418784   -0.902452
 C    0.955424    1.296216    0.427136
 C    5.611277   -0.624344    0.755301
 N   -2.036144    0.954574   -1.299170
 C   -3.192800    1.469262   -0.901901
 N   -4.036934    0.939524    0.009805
 C   -3.715051   -0.186320    0.589098
 C   -2.527294   -0.847859    0.284419
 C   -1.728440   -0.191964   -0.697689
 C   -1.777847   -2.005147    0.608381
 N   -0.673422   -2.043841   -0.086960
 N   -0.636403   -0.954171   -0.876254
 C    1.784290   -0.586221   -1.055771
 C    2.013115    0.349235   -0.044857
 C    4.257242   -0.550411    0.120811
 N    2.713076   -1.430445   -1.477106
 O    3.549058    1.267968    1.549317
 C    4.333997    2.376813    1.162543
Cl   -4.821689   -0.817210    1.737983
 N   -3.571715    2.652670   -1.421604
 H    0.216963    0.224466   -2.302782
 H    0.549182   -1.525215   -2.484179
 H    4.605008   -2.148271   -1.275461
 H    0.257624    0.775005    1.082409
 H    1.402551    2.103913    1.000417
 H    0.391076    1.708155   -0.407207
 H    6.340007   -0.051882    0.179664
 H    5.576821   -0.230272    1.768430
 H    5.950394   -1.657338    0.787366
 H   -2.016444   -2.779768    1.308564
 H    5.314813    2.075819    0.783928
 H    3.827496    2.969997    0.392257
 H    4.461869    2.981111    2.059163
 H   -3.060419    3.021379   -2.202409
 H   -4.500768    2.976490   -1.223453
