37 
5y3o_ligand_ani.xyz
 C    0.434401   -0.427330   -1.803719
 C    3.363310    0.313459    0.498961
 C    3.589243   -1.779691   -0.576775
 C    1.455894    1.841862   -0.051314
 C    5.407513   -1.069448    1.055421
 N   -1.978013    1.231736   -0.944185
 C   -3.125042    1.706217   -0.446040
 N   -4.037302    1.038177    0.303868
 C   -3.778182   -0.218642    0.569951
 C   -2.624685   -0.869697    0.114787
 C   -1.768352   -0.049712   -0.635109
 C   -1.968751   -2.140574    0.118873
 N   -0.843374   -2.094857   -0.552156
 N   -0.710437   -0.820906   -0.998871
 C    1.741790   -0.507979   -1.046995
 C    2.177340    0.523047   -0.200250
 C    4.109973   -0.855484    0.321861
 N    2.448354   -1.622821   -1.249166
 O    3.793385    1.250589    1.408916
 C    4.671046    2.228355    0.877174
Cl   -4.932469   -1.088640    1.524204
 N   -3.407119    3.012963   -0.695777
 H    0.228737    0.583508   -2.173298
 H    0.507639   -1.119320   -2.644651
 H    4.125789   -2.710196   -0.761255
 H    1.715272    2.291305    0.910513
 H    1.741899    2.555538   -0.836761
 H    0.365242    1.719832   -0.104612
 H    6.259454   -0.621543    0.526887
 H    5.358490   -0.614678    2.048215
 H    5.624166   -2.136526    1.162372
 H   -2.288236   -3.064661    0.580755
 H    5.598021    1.778742    0.497338
 H    4.196653    2.796799    0.065458
 H    4.911442    2.906583    1.698027
 H   -2.900312    3.452620   -1.447731
 H   -4.357116    3.307821   -0.530997
