12 
5y48_ligand_xtb.xyz
 N    1.240306    1.060641   -0.001295
 C    1.268067   -0.334354   -0.000599
 O    2.288513   -0.960808    0.004223
 N    0.030728   -0.983930   -0.006076
 C   -1.220402   -0.419082   -0.000492
 O   -2.220359   -1.088277    0.002764
 C   -1.219516    1.096084    0.001159
 C    0.145078    1.687884   -0.000241
 H    0.067258   -1.998827   -0.006698
 H   -1.779323    1.449021    0.873834
 H   -1.780565    1.450557   -0.870129
 H    0.210804    2.771760   -0.000270
