45 
5y5n_ligand_ani.xyz
 O    3.477873   -1.603177   -2.033947
 C    4.372339   -1.646297   -1.190407
 N    5.376730   -2.571774   -1.308942
 C    4.455229   -0.718310   -0.018776
 C    5.648528   -0.593545    0.698478
 C    5.723460    0.146208    1.869707
 C    3.337560    0.051719    0.390370
 C    3.397222    0.726005    1.615650
 C    4.577827    0.776219    2.345017
 N    2.201477    0.091721   -0.397425
 C    1.139843    1.000620   -0.346184
 C   -0.123162    0.522840   -0.685973
 C   -1.232320    1.368723   -0.660470
 C   -1.081843    2.714640   -0.326236
 C    0.193033    3.190852   -0.031874
 C    1.302724    2.358284   -0.037169
 O   -2.418387    0.788001   -0.993715
 C   -3.593570    1.576781   -0.893764
 C   -4.789455    0.705821   -1.262665
 C   -5.064853   -0.399517   -0.268475
 C   -4.327804   -1.585156   -0.302233
 C   -4.570393   -2.598704    0.618255
 C   -5.550608   -2.437444    1.593841
 C   -6.285907   -1.257433    1.642118
 C   -6.043741   -0.247476    0.715007
 H    5.214160   -3.258621   -2.031625
 H    5.852485   -2.902531   -0.483981
 H    6.546984   -1.073435    0.317074
 H    6.658101    0.206475    2.420162
 H    2.509517    1.217775    2.002563
 H    4.601958    1.329941    3.279262
 H    2.227057   -0.564030   -1.177461
 H   -0.257782   -0.518466   -0.965928
 H   -1.930901    3.388641   -0.302699
 H    0.321953    4.240810    0.218134
 H    2.288150    2.758620    0.179371
 H   -3.526043    2.430076   -1.583419
 H   -3.698030    1.965708    0.128325
 H   -4.601908    0.282015   -2.256248
 H   -5.667555    1.356181   -1.350245
 H   -3.551945   -1.704154   -1.054130
 H   -3.992197   -3.518927    0.574722
 H   -5.739681   -3.229630    2.314402
 H   -7.053881   -1.123692    2.400636
 H   -6.628421    0.670026    0.751651
