52 
5y5u_ligand_xtb.xyz
 C   -1.539065    2.482496   -0.028431
 C   -0.204889    2.048694    0.099209
 C   -0.029986    0.677886    0.475768
 N   -1.077102   -0.110335    0.687806
 N   -2.575032    1.677166    0.194609
 C   -4.704096    0.025499    0.573502
 C   -5.282066   -0.729484   -0.625309
 C   -5.170117   -2.242680   -0.403037
 O   -5.707265   -2.978313   -1.478484
 C   -3.705193   -2.605279   -0.130732
 C   -3.177076   -1.799482    1.057832
 N   -3.344850   -0.388324    0.817344
 C   -2.299797    0.418951    0.548735
 C   -1.783021    3.839490   -0.415823
 C   -0.733803    4.653942   -0.642089
 N    0.547018    4.215207   -0.511971
 C    0.901318    2.927258   -0.145683
 O    2.095776    2.642503   -0.060723
 N    1.200215    0.183282    0.620154
 C    1.498540   -1.196498    0.948067
 C    1.866122   -1.983613   -0.325803
 C    3.263843   -1.668130   -0.729451
 C    3.972220   -1.699641   -1.930832
 N    5.238717   -1.358539   -1.736326
 N    5.375801   -1.117414   -0.436736
 C    6.634475   -0.691810    0.099787
 C    4.206823   -1.288556    0.220262
 C    3.894257   -1.149581    1.613321
 C    2.607388   -1.173140    1.971458
 H   -4.697589    1.099630    0.390616
 H   -5.300917   -0.191457    1.467108
 H   -6.326819   -0.454379   -0.773823
 H   -4.723190   -0.455606   -1.524236
 H   -5.782777   -2.531634    0.458782
 H   -5.210641   -2.763309   -2.276825
 H   -3.619457   -3.673720    0.070611
 H   -3.106225   -2.372832   -1.015425
 H   -3.734794   -2.069380    1.962222
 H   -2.115960   -1.989340    1.214745
 H   -2.799222    4.176874   -0.516167
 H   -0.852865    5.686640   -0.935820
 H    1.319938    4.843988   -0.686852
 H    1.964016    0.819766    0.402433
 H    0.582699   -1.613675    1.377067
 H    1.155390   -1.735806   -1.115855
 H    1.780814   -3.056244   -0.120469
 H    3.627673   -1.945830   -2.915430
 H    6.550501    0.307357    0.532540
 H    6.979942   -1.385985    0.868807
 H    7.350907   -0.672014   -0.718652
 H    4.690679   -1.056078    2.336508
 H    2.311182   -1.065702    3.003099
