52 
5y5u_ligand_ani.xyz
 C   -1.282783    2.629920   -0.156760
 C    0.007808    2.163237    0.129584
 C    0.114462    0.781711    0.460881
 N   -0.947624   -0.017841    0.460072
 N   -2.363259    1.812550   -0.127992
 C   -4.560449    0.234389    0.153368
 C   -5.498986   -0.706381   -0.593062
 C   -5.441951   -2.114676   -0.007145
 O   -6.328828   -3.005099   -0.659381
 C   -3.999618   -2.613944   -0.028170
 C   -3.077165   -1.654796    0.713151
 N   -3.210954   -0.311599    0.164862
 C   -2.139570    0.541352    0.169867
 C   -1.471195    4.017668   -0.491755
 C   -0.396543    4.830970   -0.528747
 N    0.866793    4.356819   -0.253990
 C    1.171348    3.045644    0.079622
 O    2.342480    2.735297    0.297397
 N    1.300725    0.244685    0.791543
 C    1.473710   -1.164215    1.123856
 C    1.655079   -2.022871   -0.148344
 C    3.024645   -1.795964   -0.703337
 C    3.626735   -1.843961   -1.970040
 N    4.938933   -1.636627   -1.902897
 N    5.207193   -1.453879   -0.598128
 C    6.553310   -1.209805   -0.136831
 C    4.082411   -1.529730    0.160716
 C    3.909697   -1.350540    1.575890
 C    2.655296   -1.263530    2.047662
 H   -4.532756    1.216470   -0.317682
 H   -4.915068    0.376942    1.188763
 H   -6.526501   -0.327714   -0.554640
 H   -5.203308   -0.741067   -1.651522
 H   -5.790674   -2.080582    1.033216
 H   -6.049623   -3.063430   -1.583630
 H   -3.944660   -3.613823    0.416385
 H   -3.661343   -2.701549   -1.070700
 H   -3.323582   -1.647119    1.788767
 H   -2.036042   -1.964760    0.618525
 H   -2.470611    4.376820   -0.708902
 H   -0.453833    5.886361   -0.772322
 H    1.670320    4.969099   -0.288417
 H    2.111782    0.852405    0.735351
 H    0.561247   -1.479752    1.642400
 H    0.860940   -1.767787   -0.856839
 H    1.513561   -3.077950    0.129107
 H    3.167324   -2.023825   -2.933364
 H    6.596251   -0.272642    0.426714
 H    6.898211   -2.026897    0.504678
 H    7.191521   -1.139769   -1.017224
 H    4.780913   -1.266712    2.219181
 H    2.466627   -1.129947    3.111317
