52 
5y5u_ligand_dft.xyz
 C   -1.745560    2.443926   -0.159675
 C   -0.380796    2.218529    0.101530
 C   -0.062559    0.952501    0.693272
 N   -1.015242    0.062714    0.970424
 N   -2.700561    1.547241    0.119518
 C   -4.588062   -0.395080    0.443661
 C   -4.711306   -1.237307   -0.831324
 C   -4.324162   -2.695245   -0.567923
 O   -4.402777   -3.489308   -1.736448
 C   -2.946950   -2.779846    0.097311
 C   -2.885127   -1.884955    1.339866
 N   -3.245731   -0.516776    0.996292
 C   -2.284689    0.401743    0.680081
 C   -2.134530    3.693925   -0.760901
 C   -1.183409    4.604005   -1.056143
 N    0.139919    4.363239   -0.797589
 C    0.632443    3.196051   -0.223397
 O    1.848214    3.083558   -0.040612
 N    1.209640    0.634523    0.977947
 C    1.610394   -0.654162    1.530278
 C    1.616586   -1.770270    0.461258
 C    2.847584   -1.681914   -0.383737
 C    3.203287   -2.049959   -1.690717
 N    4.487266   -1.793739   -1.941506
 N    4.970648   -1.270665   -0.800949
 C    6.340445   -0.815439   -0.737889
 C    4.015778   -1.180603    0.157317
 C    4.107276   -0.662280    1.510368
 C    2.966718   -0.454809    2.183423
 H   -4.791255    0.655469    0.247172
 H   -5.297787   -0.751920    1.201446
 H   -5.730814   -1.193097   -1.229004
 H   -4.039629   -0.813537   -1.591920
 H   -5.064593   -3.132180    0.114827
 H   -3.767110   -3.132021   -2.369643
 H   -2.726509   -3.821058    0.355792
 H   -2.177586   -2.443257   -0.612862
 H   -3.601190   -2.239709    2.092752
 H   -1.891804   -1.889247    1.783553
 H   -3.181193    3.878846   -0.962669
 H   -1.403976    5.563656   -1.509053
 H    0.844207    5.050322   -1.027168
 H    1.910507    1.316923    0.698450
 H    0.869692   -0.920755    2.288931
 H    0.694522   -1.700151   -0.122046
 H    1.592696   -2.739115    0.980901
 H    2.589649   -2.490700   -2.465107
 H    6.389025    0.276864   -0.688475
 H    6.843584   -1.240432    0.135558
 H    6.836054   -1.160674   -1.644556
 H    5.074781   -0.457130    1.960023
 H    2.983484   -0.049717    3.190663
