32 
5y6d_ligand_ani.xyz
 C   -0.691538    0.712909    0.550682
 C   -2.050561    0.117299    0.249629
 C   -2.957831   -0.118319    1.280086
 C   -4.201502   -0.687090    1.023808
 C   -4.519202   -1.012340   -0.285004
 C   -3.643490   -0.782537   -1.335958
 C   -2.406545   -0.213026   -1.058211
 F   -5.716690   -1.564923   -0.547489
 N    0.375109   -0.203590    0.209201
 C    1.648566    0.111306    0.594592
 O    1.863310    1.034851    1.363415
 C    2.761574   -0.777695    0.060559
 C    4.025242    0.078204   -0.052253
 S    5.434886   -0.744258   -0.845697
 C    2.936699   -1.980540    0.996986
 C   -0.546375    2.076906   -0.128913
 O   -1.068409    3.081979    0.276273
 O    0.193887    2.028866   -1.253769
 H   -0.631690    0.923296    1.620433
 H   -2.690668    0.141187    2.302994
 H   -4.917805   -0.879775    1.816263
 H   -3.934234   -1.052673   -2.345780
 H   -1.718905   -0.009788   -1.877126
 H    0.225268   -0.807282   -0.585970
 H    2.481784   -1.137868   -0.939298
 H    3.819245    0.954104   -0.675499
 H    4.304946    0.450947    0.935588
 H    5.744437   -1.562825    0.171702
 H    3.690444   -2.674328    0.611743
 H    1.996057   -2.530659    1.096005
 H    3.247219   -1.650928    1.994724
 H    0.209674    2.938138   -1.595001
