33 
5y6e_ligand_ani.xyz
 C    4.033275    0.079088   -0.047728
 O    0.218816    2.026219   -1.224476
 C    2.771729   -0.782317    0.047349
 C    1.656643    0.091916    0.601305
 C   -0.681739    0.696953    0.562919
 C   -2.044637    0.114267    0.257093
 C   -2.418543   -0.168648   -1.057683
 C   -3.659408   -0.715990   -1.345021
 C   -4.553168   -0.988408   -0.307236
 C   -4.196526   -0.706200    1.009970
 C   -2.946876   -0.156543    1.280230
 O   -5.756695   -1.526785   -0.646824
 N    0.382704   -0.219567    0.212310
 O    1.870285    1.001185    1.387084
 S    5.445623   -0.723223   -0.856821
 C    2.951038   -2.005256    0.956377
 C   -0.530605    2.066353   -0.105360
 O   -1.056084    3.068667    0.302294
 H    3.825733    0.967324   -0.652980
 H    4.311974    0.432133    0.947538
 H    0.237673    2.937671   -1.559438
 H    2.491676   -1.121193   -0.960023
 H   -0.617331    0.897113    1.634574
 H   -1.735010    0.057852   -1.874719
 H   -3.954156   -0.942165   -2.364815
 H   -4.890311   -0.914636    1.823434
 H   -2.673324    0.059961    2.311505
 H   -6.279503   -1.664075    0.153167
 H    0.236900   -0.803186   -0.598597
 H    5.758956   -1.558158    0.145879
 H    2.010835   -2.557464    1.047666
 H    3.703018   -2.690255    0.552276
 H    3.266303   -1.697956    1.959587
