39 
5y7h_ligand_ani.xyz
 C    2.123117   -0.350166   -0.222911
 C    3.866069    1.414151   -0.265037
 C    4.160051   -0.642258   -1.507099
 C   -5.273159    0.088022    0.063269
 C   -4.602516   -1.114176    0.199183
 C   -3.233946   -1.116986   -0.017655
 C   -2.503563    0.012285   -0.366679
 C   -3.217499    1.207828   -0.493295
 C   -4.583563    1.242144   -0.280622
 C   -1.006117   -0.030289   -0.550543
 C   -0.211760   -0.013308    0.773759
 C    1.205622    0.549339    0.598527
 N    3.218027    0.232873   -0.808739
 O    1.897979   -1.550774   -0.361991
 C    5.156164    1.116792    0.504682
 N    5.738427   -0.095227    0.262956
 C    5.167694   -1.194785   -0.505143
 O    5.646590    1.947077    1.248316
 N   -0.116347   -1.402260    1.337821
 F   -5.262820    2.391282   -0.406036
 F   -6.594334    0.153876    0.261482
 F   -2.576845   -2.296450    0.124982
 H    4.128206    2.098005   -1.084074
 H    3.205851    1.960419    0.409946
 H    3.603925   -1.443236   -1.998232
 H    4.672524   -0.042128   -2.268528
 H   -5.132624   -2.019136    0.472139
 H   -2.719739    2.133910   -0.763134
 H   -0.715751    0.849000   -1.136206
 H   -0.708928   -0.907150   -1.132458
 H   -0.741072    0.620127    1.490656
 H    1.671923    0.701200    1.581987
 H    1.142568    1.532458    0.123797
 H    6.579330   -0.263456    0.798409
 H    4.666860   -1.918593    0.151662
 H    5.979274   -1.718945   -1.019998
 H    0.124270   -1.376521    2.345061
 H    0.642153   -1.875228    0.785629
 H   -1.009642   -1.898781    1.202011
