55 
5y7j_ligand_ani.xyz
 C    1.006476   -0.266811    1.627570
 C    2.021241   -1.197712   -0.465054
 C    2.981875   -1.697159    1.759606
 C    2.012076    3.413520   -1.009533
 C    3.806852    2.373377   -2.419015
 C   -4.626836   -0.912519   -0.978271
 C   -4.710198   -0.615962    0.369858
 C   -3.867623    0.364792    0.867673
 C   -2.947101    1.063162    0.094621
 C   -2.903815    0.741717   -1.266302
 C   -3.730179   -0.235248   -1.792042
 C   -2.005098    2.077990    0.699363
 C   -0.833287    1.498671    1.530392
 C   -0.145315    0.324547    0.820593
 N    1.935545   -1.033958    0.982998
 O    1.063170   -0.096266    2.845540
 C    2.483152   -2.593749   -0.897053
 N    2.986094   -3.421595    0.061481
 C    2.905671   -3.190766    1.495103
 O    2.414542   -2.918121   -2.070726
 N   -1.252640    1.089696    2.910532
 F   -3.678601   -0.543311   -3.096461
 F   -5.411629   -1.852729   -1.516277
 F   -3.954783    0.650907    2.190998
 C    2.922855   -0.142081   -1.130265
 O    2.267077    1.100933   -1.021013
 C    3.049015    2.294260   -1.092899
 C    4.005580    2.384304    0.096238
 H    1.025477   -1.086537   -0.900646
 H    3.967553   -1.313119    1.460126
 H    2.819153   -1.460841    2.811359
 H    2.485938    4.398712   -1.083065
 H    1.474311    3.361523   -0.056502
 H    1.282332    3.309727   -1.818255
 H    4.558699    1.580979   -2.503626
 H    3.110389    2.282391   -3.259178
 H    4.324126    3.335355   -2.501758
 H   -5.408476   -1.138481    1.013324
 H   -2.224552    1.252570   -1.942012
 H   -2.559890    2.780444    1.330237
 H   -1.565693    2.661420   -0.118019
 H   -0.099010    2.302503    1.655143
 H   -0.856360   -0.491884    0.630036
 H    0.213515    0.675150   -0.143692
 H    3.211857   -4.348504   -0.272517
 H    1.973220   -3.596708    1.911222
 H    3.743036   -3.709168    1.973484
 H   -2.115198    0.525531    2.855550
 H   -0.452419    0.525748    3.291827
 H   -1.417283    1.919946    3.503534
 H    3.902579   -0.129449   -0.632755
 H    3.070076   -0.420372   -2.181198
 H    4.817786    1.652853    0.029708
 H    4.464278    3.378580    0.130249
 H    3.466307    2.220434    1.034094
