55 
5y7k_ligand_dft.xyz
 C    1.761751    1.667201    0.252758
 C    2.684465   -0.395489   -0.746188
 C    3.953929    0.881242    0.941481
 C    0.877231   -2.500729    2.572629
 C   -0.529320   -3.093058    0.559889
 C   -4.122077   -0.953685   -0.265185
 C   -4.307889    0.232200    0.424998
 C   -3.523222    1.317396    0.068952
 C   -2.572101    1.281280   -0.945997
 C   -2.414483    0.069458   -1.626642
 C   -3.178088   -1.032693   -1.288824
 C   -1.753382    2.507158   -1.272824
 C   -0.481150    2.652798   -0.425923
 C    0.568328    1.579201   -0.700841
 N    2.783650    0.811559    0.070977
 O    1.776393    2.529113    1.146341
 C    4.030968   -0.873501   -1.302014
 N    5.153351   -0.279634   -0.828012
 C    5.202869    0.856670    0.077108
 O    4.035579   -1.791069   -2.101447
 N   -0.812579    2.602221    1.044007
 F   -3.007448   -2.187858   -1.925690
 F   -4.835300   -2.026164    0.042572
 F   -3.673307    2.471178    0.761935
 C    2.050067   -1.556956    0.040173
 O    0.843978   -1.078251    0.578924
 C    0.055812   -1.959068    1.401608
 C   -1.051953   -1.039742    1.915114
 H    2.070989   -0.189662   -1.624792
 H    3.898638    1.802065    1.519629
 H    3.946142    0.033259    1.636754
 H    0.219205   -3.002379    3.288173
 H    1.390426   -1.684210    3.092127
 H    1.620713   -3.234816    2.248120
 H   -1.082835   -2.698876   -0.297010
 H   -1.213376   -3.698323    1.162554
 H    0.252629   -3.761658    0.186861
 H   -5.045266    0.303706    1.215450
 H   -1.700364   -0.025334   -2.438425
 H   -2.365300    3.406313   -1.150292
 H   -1.446058    2.482524   -2.322691
 H   -0.049000    3.645126   -0.578112
 H    0.912878    1.707912   -1.732901
 H    0.127126    0.581098   -0.620532
 H    6.011523   -0.611102   -1.248888
 H    5.287322    1.798087   -0.479960
 H    6.085087    0.761033    0.715867
 H   -1.518895    3.289892    1.313576
 H   -1.159967    1.673352    1.307356
 H    0.112367    2.763914    1.514270
 H    1.904994   -2.391376   -0.654238
 H    2.738718   -1.883730    0.830980
 H   -0.619838   -0.248030    2.540552
 H   -1.776848   -1.591693    2.519266
 H   -1.585601   -0.596957    1.065969
