40 
5y8c_ligand_xtb.xyz
 C   -0.910411   -2.911066   -2.382378
 O   -0.806070   -2.395539   -1.076325
 C    0.380589   -1.837976   -0.694491
 C    1.465387   -1.674291   -1.534526
 C    2.590963   -1.066401   -0.993092
 O    3.756813   -0.786718   -1.603813
 N    4.583681   -0.180883   -0.691869
 C    3.967274   -0.082507    0.446546
 C    4.592370    0.525402    1.643337
 C    2.649087   -0.638613    0.341972
 C    1.554731   -0.819500    1.184809
 C    0.427400   -1.414012    0.663630
 N   -0.703990   -1.584140    1.474798
 S   -1.363872   -0.166569    2.094524
 O   -0.399272    0.458737    2.945012
 O   -2.638215   -0.497124    2.643856
 C   -1.508965    0.825449    0.603003
 C   -0.666185    1.898581    0.427332
 C   -0.713742    2.607570   -0.764476
Cl    0.343927    3.943392   -1.011615
 C   -1.606683    2.235943   -1.757804
 C   -2.445527    1.150057   -1.575213
 C   -2.396734    0.413131   -0.391786
 O   -3.120625   -0.691263   -0.124689
 C   -4.131299   -1.081314   -1.029721
 H   -0.819560   -2.119116   -3.133121
 H   -0.154544   -3.678706   -2.570909
 H   -1.900384   -3.360791   -2.443366
 H    1.461843   -1.981652   -2.565722
 H    4.644992   -0.209278    2.445125
 H    5.592180    0.872045    1.400387
 H    3.988560    1.361254    1.992166
 H    1.560207   -0.492779    2.210097
 H   -1.429689   -2.131792    1.032656
 H    0.007596    2.161461    1.226523
 H   -1.644524    2.793873   -2.680417
 H   -3.127559    0.879151   -2.365040
 H   -4.867797   -0.285642   -1.171620
 H   -3.710396   -1.371417   -1.997297
 H   -4.614163   -1.941467   -0.570082
