40 
5y8c_ligand_ani.xyz
 C    2.600804   -3.519931   -0.946171
 O    1.794010   -2.691541   -0.130566
 C    2.116441   -1.368589   -0.090232
 C    3.152255   -0.820853   -0.826716
 C    3.340682    0.552162   -0.664833
 O    4.273137    1.309653   -1.264600
 N    4.118160    2.627122   -0.823327
 C    3.119420    2.642419    0.014907
 C    2.685036    3.905677    0.676758
 C    2.561049    1.329267    0.170443
 C    1.517234    0.769201    0.915712
 C    1.292557   -0.583027    0.775704
 N    0.299894   -1.288774    1.492024
 S   -1.173131   -0.656978    1.941226
 O   -0.940956    0.592316    2.646422
 O   -1.866890   -1.761407    2.571379
 C   -1.970677   -0.252182    0.415519
 C   -2.631472    0.966073    0.327721
 C   -3.298333    1.299121   -0.843729
Cl   -4.130154    2.820250   -0.955964
 C   -3.303738    0.429040   -1.925772
 C   -2.637565   -0.789263   -1.831377
 C   -1.978292   -1.148936   -0.658012
 O   -1.360754   -2.337384   -0.470724
 C   -0.977006   -3.063722   -1.623362
 H    2.546836   -3.213597   -1.998949
 H    3.647387   -3.499724   -0.616234
 H    2.210611   -4.533096   -0.838134
 H    3.782378   -1.405863   -1.482553
 H    3.329851    4.731448    0.366167
 H    1.649403    4.145732    0.414047
 H    2.731420    3.808876    1.766495
 H    0.910830    1.359053    1.591199
 H    0.215626   -2.268181    1.244830
 H   -2.619656    1.646105    1.173861
 H   -3.822188    0.699304   -2.840568
 H   -2.637596   -1.461170   -2.682657
 H   -1.852263   -3.476525   -2.140044
 H   -0.407875   -2.424999   -2.308773
 H   -0.347187   -3.880227   -1.272443
