13 
5yas_ligand_dft.xyz
 C   -0.007481    0.614366    0.000078
 O   -0.032784    1.362538    1.166739
 O   -0.032978    1.362049   -1.166950
 C    1.260351   -0.278352   -0.000070
 C   -1.314100   -0.212476    0.000066
 F    1.352516   -1.043739   -1.080626
 F    1.353937   -1.042718    1.081324
 F    2.328941    0.565860   -0.000938
 F   -1.377470   -0.990917   -1.082020
 F   -2.365128    0.601881    0.001057
 F   -1.376897   -0.992348    1.081177
 H    0.825897    1.788744    1.289643
 H    0.824495    1.791168   -1.288181
