51 
5ye7_ligand_dft.xyz
 C   -3.342730    2.706553    0.589074
 C   -1.837944    2.864655    0.645429
 C    0.213399    1.849450   -0.369176
 C    1.167289    2.511000    0.418162
 C    2.506414    2.161917    0.303107
 C    2.903269    1.179152   -0.599186
 C    3.051250   -1.315507    0.927322
 C    2.838158   -2.396194    0.074741
 C    1.575581   -2.978012   -0.006105
 C    0.539399   -2.479215    0.772969
 C   -1.686426   -2.235464    0.129338
 C   -1.549698   -1.791574   -1.208636
 C   -2.532097   -1.025380   -1.776639
 C   -3.693587   -0.660499   -1.042001
 C   -4.727396    0.130762   -1.607068
 C   -5.837473    0.461235   -0.872737
 C   -5.964391    0.014289    0.463338
 C   -4.983583   -0.755785    1.035287
 C   -3.823052   -1.116018    0.300848
 C   -2.791645   -1.909896    0.868269
 C    0.756057   -1.432878    1.664890
 C    2.011658   -0.851836    1.737685
 C    1.971022    0.574431   -1.437639
 C    0.637313    0.923100   -1.331285
 N   -1.166327    2.045151   -0.240581
 N    4.297078   -0.621287    0.879319
 O   -1.282188    3.630496    1.409429
 O    4.738217   -0.377589   -1.619302
 O    5.473612    1.415604    0.027465
 O   -0.719404   -3.048264    0.677750
 S    4.506748    0.437156   -0.440822
 H   -3.638058    1.740869    1.014342
 H   -3.797495    3.506766    1.172696
 H   -3.718215    2.740767   -0.438015
 H    0.847718    3.261042    1.127023
 H    3.245869    2.643146    0.936425
 H    3.655194   -2.747057   -0.545897
 H    1.384822   -3.811524   -0.674016
 H   -0.664024   -2.076225   -1.767660
 H   -2.440311   -0.700532   -2.810644
 H   -4.627620    0.466196   -2.636452
 H   -6.624103    1.064900   -1.314454
 H   -6.847183    0.281397    1.035940
 H   -5.083863   -1.103562    2.059871
 H   -2.875548   -2.268915    1.889467
 H   -0.065404   -1.062154    2.269185
 H    2.174078    0.000157    2.391392
 H    2.292688   -0.182673   -2.143812
 H   -0.095201    0.444545   -1.972490
 H   -1.741809    1.410246   -0.779413
 H    4.508620   -0.100631    1.725843
