45 
5yea_ligand_xtb.xyz
 C    2.265576    1.651880   -1.526471
 C   -1.894913   -1.056235   -0.007667
 C    3.366568    0.851567   -1.268215
 C    3.925825    0.855642   -0.005526
 C    0.324837   -1.856406    0.158222
 C    0.483480    3.251071   -0.701374
 C    2.975479   -1.622326    1.016186
 C    1.919757   -1.439861    1.909666
 C    0.610875   -1.563340    1.486491
 C    1.384771   -2.084655   -0.732598
 C    2.702260   -1.979105   -0.298567
 N    4.298114   -1.396081    1.385929
 N    0.898911   -2.544478   -3.203442
 C    1.727450    2.435759   -0.508205
 C    3.418667    1.646639    1.008620
 C   -1.587275    0.266113    0.300100
 C   -2.595686    1.183671    0.516226
 C   -3.926063    0.795960    0.433372
 C   -4.238128   -0.529187    0.123537
 C   -3.226003   -1.449558   -0.098430
 C    2.310982    2.434821    0.758246
 C    1.112546   -2.363324   -2.092927
 C   -5.676061   -0.972107    0.030596
 F   -6.361048   -0.312964   -0.915388
 F   -6.342663   -0.794848    1.182717
 F   -5.791028   -2.274398   -0.265544
 O   -0.303366    3.427391    0.186957
 O    0.287782    3.767565   -1.917581
 O    6.184939    0.220220    1.265235
 O    5.596028   -1.026918   -0.783239
 O   -0.954119   -1.997660   -0.308872
 S    5.197540   -0.346607    0.404391
Cl   -5.165472    1.955197    0.705858
 H    1.807132    1.616066   -2.505211
 H    3.796887    0.222325   -2.030480
 H    2.127739   -1.197064    2.940945
 H   -0.201974   -1.417309    2.181781
 H    3.519119   -2.153901   -0.980260
 H    4.449515   -1.206991    2.365453
 H    3.895233    1.635330    1.976179
 H   -0.558100    0.588139    0.359062
 H   -2.342300    2.209043    0.734358
 H   -3.455131   -2.472499   -0.350906
 H    1.875437    3.049759    1.530762
 H    1.012529    3.591378   -2.532695
