45 
5yea_ligand_dft.xyz
 C    2.262867    1.696015   -1.486955
 C   -1.903374   -1.039561   -0.139715
 C    3.340833    0.860944   -1.213842
 C    3.923860    0.903810    0.046510
 C    0.283434   -1.913730    0.113848
 C    0.536553    3.375191   -0.713719
 C    2.924401   -1.702156    0.992455
 C    1.866211   -1.318153    1.820889
 C    0.553439   -1.446916    1.398385
 C    1.336705   -2.330030   -0.709602
 C    2.656982   -2.248684   -0.256974
 N    4.266946   -1.446967    1.376108
 N    0.875446   -3.167241   -3.119363
 C    1.768866    2.545578   -0.496127
 C    3.461005    1.768335    1.036554
 C   -1.566589    0.307852   -0.071887
 C   -2.568558    1.251042    0.116352
 C   -3.896314    0.852077    0.222788
 C   -4.234884   -0.503239    0.143083
 C   -3.226462   -1.444913   -0.034975
 C    2.369526    2.579644    0.765554
 C    1.064425   -2.803349   -2.035853
 C   -5.666054   -0.983165    0.254348
 F   -6.437646   -0.467946   -0.710872
 F   -6.207781   -0.650308    1.433930
 F   -5.739987   -2.320448    0.149459
 O   -0.260204    3.586602    0.165353
 O    0.337489    3.856932   -1.951408
 O    6.111511    0.230760    1.404480
 O    5.556238   -0.962815   -0.770761
 O   -0.980013   -2.034305   -0.376649
 S    5.154299   -0.326066    0.467164
Cl   -5.102503    2.086876    0.456278
 H    1.780517    1.631576   -2.458882
 H    3.716069    0.169371   -1.959603
 H    2.072352   -0.896457    2.800737
 H   -0.264085   -1.145151    2.043591
 H    3.472826   -2.565788   -0.896954
 H    4.403040   -1.252792    2.362946
 H    3.943691    1.793683    2.008561
 H   -0.533914    0.629852   -0.154279
 H   -2.309410    2.302790    0.174167
 H   -3.461521   -2.499627   -0.099987
 H    1.963257    3.238308    1.525531
 H    1.121530    3.725240   -2.501859
