106 
5yib_ligand_dft.xyz
 C    1.822683   -1.367318    2.255190
 C    0.621428   -2.646626    0.544098
 C    3.146016   -4.777565   -0.759045
 C    4.290338   -4.783190   -1.556003
 C    4.351444   -3.981630   -2.690300
 C    3.266977   -3.169840   -3.022272
 C    2.131985   -3.160799   -2.221301
 C   -0.805663   -2.529832    1.104739
 C   -1.755805   -2.056552    0.000860
 C   -3.729736   -2.417852    1.527987
 C   -5.419042   -1.682694   -0.295467
 C   -3.955818   -1.412595   -0.740024
 C    3.446049    1.874434    3.368261
 C    3.608935    1.517920    1.916767
 C    3.393826    2.467180    0.916730
 C    3.566835    2.146800   -0.427383
 C    4.008031    0.870200   -0.773137
 C    4.240095   -0.101317    0.195217
 C    3.992469    0.230460    1.530905
 O    4.196568   -0.771814    2.458078
 C    3.063205   -1.282477    3.146961
 O    1.072567   -0.405170    2.124613
 N    1.607425   -2.550640    1.621871
 C    0.806436   -3.951799   -0.237305
 C    2.057129   -3.967730   -1.081115
 O   -1.332704   -1.675980   -1.086772
 N   -3.082454   -1.978246    0.288545
 S   -5.327257   -1.561231    1.546889
 C   -3.673370    0.076622   -1.006241
 O   -3.805427    0.515796   -2.146751
 N   -3.330816    0.799562    0.081729
 C   -3.266812    2.242751    0.270537
 C   -3.336423    3.177666   -0.962304
 C   -2.838733    4.510955   -0.373101
 C   -1.814250    4.072334    0.649271
 C   -0.768680    4.778694    1.227774
 C    0.099961    4.108347    2.094492
 C   -0.071487    2.751140    2.361593
 C   -1.138436    2.048597    1.798523
 C   -2.010119    2.726096    0.962540
 O   -2.442734    2.783089   -1.980852
 C   -5.830174   -3.095273   -0.726726
 C   -6.418153   -0.655393   -0.825377
 O   -1.290607   -3.742101    1.642963
 C    4.731214   -1.473807   -0.167839
 N    3.299404    3.065448   -1.505129
 C    4.490008    3.782479   -1.960498
 C    2.143074    3.934247   -1.329252
 C    0.885224    3.094689   -1.128515
 N    0.894470    1.932851   -2.076366
 C    0.397546    2.309399   -3.427766
 C    0.166057    0.762051   -1.511268
 H    0.772762   -1.800899   -0.130945
 H    3.093966   -5.430557    0.110009
 H    5.126519   -5.424492   -1.295199
 H    5.236009   -3.994352   -3.319543
 H    3.304610   -2.555171   -3.917199
 H    1.274444   -2.546352   -2.488283
 H   -0.806192   -1.736443    1.865682
 H   -3.152567   -2.122666    2.405798
 H   -3.851701   -3.501828    1.542941
 H   -3.767929   -1.904486   -1.697370
 H    2.499599    1.490220    3.764588
 H    4.253894    1.443742    3.967768
 H    3.453432    2.958518    3.509728
 H    3.081006    3.467103    1.205393
 H    4.175131    0.635518   -1.822718
 H    2.801737   -0.654639    4.004200
 H    3.367255   -2.265614    3.516077
 H    2.354041   -3.233122    1.628409
 H    0.794449   -4.797820    0.458141
 H   -0.068957   -4.072020   -0.882143
 H   -3.389048    0.286645    0.952009
 H   -4.124070    2.513221    0.907328
 H   -4.355045    3.249106   -1.358553
 H   -3.668394    5.050133    0.101261
 H   -2.434367    5.152199   -1.161242
 H   -0.615748    5.830833    1.002567
 H    0.923051    4.647229    2.555521
 H    0.624890    2.223609    3.002104
 H   -1.249104    0.987673    2.002647
 H   -2.857750    1.976743   -2.356343
 H   -5.899937   -3.141327   -1.819442
 H   -6.805670   -3.352805   -0.306831
 H   -5.107390   -3.851566   -0.405646
 H   -6.379319   -0.627699   -1.918472
 H   -7.432708   -0.930130   -0.523217
 H   -6.210724    0.351204   -0.451356
 H   -0.784627   -3.932385    2.442941
 H    3.976508   -2.237783    0.040662
 H    5.623732   -1.734306    0.408190
 H    4.971023   -1.537160   -1.230828
 H    5.290572    3.065255   -2.152155
 H    4.847328    4.512020   -1.218016
 H    4.266278    4.309321   -2.893329
 H    2.061191    4.549221   -2.232207
 H    2.218983    4.634135   -0.482110
 H    0.854529    2.678699   -0.121380
 H   -0.033998    3.653498   -1.295518
 H    1.895552    1.702955   -2.170895
 H   -0.632451    2.653274   -3.324614
 H    1.031301    3.102830   -3.825846
 H    0.450009    1.436304   -4.079604
 H    0.222693   -0.070471   -2.210791
 H   -0.872103    1.054716   -1.359930
 H    0.626345    0.493839   -0.558478
