106 
5yib_ligand_xtb.xyz
 C    1.972864   -1.052582    1.861021
 C    0.766764   -2.635708    0.460668
 C    3.413017   -4.729918   -0.035453
 C    4.660647   -4.829630   -0.627813
 C    4.850859   -4.379286   -1.922323
 C    3.789886   -3.827063   -2.621228
 C    2.545774   -3.721486   -2.025446
 C   -0.668650   -2.457576    1.011847
 C   -1.607827   -2.040324   -0.128544
 C   -3.560742   -2.467740    1.357161
 C   -5.261524   -1.989621   -0.540122
 C   -3.833391   -1.565610   -0.913877
 C    3.644593    2.331572    3.078999
 C    3.716976    1.917306    1.641797
 C    3.429464    2.838742    0.644201
 C    3.507377    2.491836   -0.695559
 C    3.945931    1.217491   -1.040189
 C    4.231827    0.273721   -0.070351
 C    4.066318    0.618282    1.274211
 O    4.275709   -0.375961    2.220260
 C    3.104123   -0.840908    2.866246
 O    1.322904   -0.116606    1.421940
 N    1.743205   -2.324006    1.493164
 C    0.989627   -4.046918   -0.086592
 C    2.343551   -4.176537   -0.727741
 O   -1.174326   -1.653565   -1.198577
 N   -2.929377   -2.041017    0.130274
 S   -5.255957   -1.818446    1.303030
 C   -3.694033   -0.041885   -1.093048
 O   -3.569936    0.440789   -2.205528
 N   -3.726312    0.628044    0.064449
 C   -3.643805    2.041535    0.393166
 C   -3.595093    3.114682   -0.731189
 C   -3.080548    4.348801    0.033983
 C   -2.124816    3.746140    1.021134
 C   -1.060535    4.323482    1.682522
 C   -0.290808    3.531826    2.526302
 C   -0.585691    2.191145    2.704483
 C   -1.664001    1.611354    2.049972
 C   -2.424475    2.398477    1.212246
 O   -2.662712    2.832687   -1.738806
 C   -5.514895   -3.443584   -0.916087
 C   -6.330697   -1.087087   -1.136666
 O   -1.162351   -3.602742    1.657545
 C    4.665778   -1.106336   -0.454193
 N    3.104745    3.346809   -1.768416
 C    4.209170    3.990818   -2.458332
 C    1.994401    4.240835   -1.487118
 C    0.786661    3.403071   -1.054492
 N    0.685289    2.188858   -1.894428
 C    0.077834    2.472558   -3.202179
 C   -0.046392    1.125735   -1.193981
 H    0.880022   -1.901550   -0.346870
 H    3.269202   -5.113264    0.966519
 H    5.481269   -5.267187   -0.080104
 H    5.820427   -4.465627   -2.387615
 H    3.931475   -3.483222   -3.634773
 H    1.716048   -3.294362   -2.570338
 H   -0.650113   -1.597231    1.705063
 H   -3.063464   -2.059199    2.238502
 H   -3.588613   -3.557082    1.440955
 H   -3.538279   -2.009304   -1.871685
 H    2.630337    2.207954    3.460482
 H    4.323679    1.733796    3.682435
 H    3.916171    3.379638    3.182289
 H    3.146784    3.839138    0.935969
 H    4.053177    0.954942   -2.083348
 H    2.756175   -0.121093    3.618771
 H    3.391928   -1.770906    3.361042
 H    2.385014   -3.053665    1.764077
 H    0.883944   -4.777138    0.718401
 H    0.207896   -4.239047   -0.822809
 H   -3.967492    0.070485    0.878870
 H   -4.535577    2.269909    0.997752
 H   -4.589989    3.272420   -1.167613
 H   -3.901461    4.851833    0.547620
 H   -2.611051    5.057233   -0.646651
 H   -0.828739    5.369137    1.547330
 H    0.544216    3.971135    3.050747
 H    0.023945    1.586185    3.356665
 H   -1.891715    0.566062    2.194415
 H   -2.972920    2.004006   -2.177590
 H   -5.598415   -3.534153   -1.997214
 H   -6.445437   -3.786480   -0.469632
 H   -4.708434   -4.090957   -0.579802
 H   -6.222043   -1.051409   -2.218608
 H   -7.316822   -1.476928   -0.897423
 H   -6.262859   -0.073628   -0.748557
 H   -0.562110   -3.843476    2.372574
 H    3.797287   -1.747285   -0.606544
 H    5.277597   -1.543250    0.329813
 H    5.233254   -1.086417   -1.380673
 H    4.986069    3.254027   -2.645712
 H    4.642943    4.813243   -1.877622
 H    3.857272    4.383243   -3.412537
 H    1.779215    4.783895   -2.411551
 H    2.206794    4.993109   -0.714584
 H    0.916946    3.079399   -0.020223
 H   -0.143764    3.965426   -1.129993
 H    1.668093    1.902164   -2.042611
 H   -0.937485    2.835284   -3.046935
 H    0.660243    3.219541   -3.734864
 H    0.039322    1.563293   -3.797387
 H   -0.157024    0.247255   -1.825346
 H   -1.037402    1.499580   -0.948236
 H    0.469529    0.840379   -0.277906
