106 
5yib_ligand_ani.xyz
 C    2.342398   -1.158647    2.250653
 C    1.094857   -2.322968    0.463783
 C    3.617247   -4.431771   -0.874154
 C    4.743756   -4.454000   -1.692613
 C    4.783504   -3.672191   -2.844719
 C    3.689724   -2.872960   -3.174594
 C    2.565492   -2.858494   -2.357056
 C   -0.305437   -2.237021    1.099417
 C   -1.395035   -2.100125    0.030466
 C   -3.160334   -2.577619    1.753508
 C   -5.043771   -2.659018   -0.053024
 C   -3.727750   -2.058150   -0.612276
 C    3.861922    1.973012    3.381300
 C    3.997503    1.722450    1.901021
 C    3.634347    2.718302    0.989796
 C    3.725853    2.503173   -0.386068
 C    4.318667    1.321205   -0.841444
 C    4.682131    0.301572    0.033679
 C    4.443253    0.496967    1.401172
 O    4.737902   -0.556253    2.242702
 C    3.669477   -1.097354    3.017669
 O    1.540543   -0.237888    2.300463
 N    2.120654   -2.288092    1.510543
 C    1.262123   -3.621717   -0.343822
 C    2.509502   -3.643385   -1.200407
 O   -1.108409   -1.821655   -1.130111
 N   -2.699190   -2.239484    0.411605
 S   -4.956289   -2.278124    1.733363
 C   -3.888504   -0.602006   -1.081338
 O   -4.292474   -0.371742   -2.222017
 N   -3.595346    0.357334   -0.173972
 C   -4.096633    1.727513   -0.179332
 C   -4.152702    2.456496   -1.556619
 C   -3.948585    3.944035   -1.207465
 C   -3.181897    3.914794    0.095894
 C   -2.495970    4.942616    0.731441
 C   -1.852305    4.676756    1.939752
 C   -1.902830    3.401747    2.506031
 C   -2.602433    2.374795    1.874728
 C   -3.242729    2.644420    0.670184
 O   -3.103176    2.054301   -2.406860
 C   -5.027051   -4.175873   -0.264346
 C   -6.305642   -2.053225   -0.654251
 O   -0.570488   -3.372943    1.899105
 C    5.284328   -0.991991   -0.448853
 N    3.225429    3.422206   -1.367465
 C    4.297531    4.136253   -2.031418
 C    2.143772    4.319034   -0.964572
 C    0.891115    3.547779   -0.538633
 N    0.707618    2.352258   -1.420933
 C    0.013306    2.696435   -2.690737
 C    0.026880    1.231996   -0.728895
 H    1.209935   -1.445721   -0.183943
 H    3.595712   -5.046641    0.024586
 H    5.594912   -5.074388   -1.423799
 H    5.663206   -3.684438   -3.482309
 H    3.715386   -2.261352   -4.073209
 H    1.710950   -2.230083   -2.611845
 H   -0.333792   -1.323544    1.708358
 H   -2.691443   -1.937057    2.506017
 H   -2.941727   -3.621135    2.001350
 H   -3.428537   -2.597170   -1.515736
 H    2.889281    1.624069    3.750380
 H    4.646694    1.459060    3.946481
 H    3.928491    3.043265    3.602104
 H    3.274567    3.668778    1.372868
 H    4.456722    1.197400   -1.913073
 H    3.496649   -0.498727    3.916902
 H    4.018150   -2.087266    3.327836
 H    2.901759   -2.917591    1.372760
 H    1.254285   -4.467861    0.353489
 H    0.390341   -3.741972   -0.993481
 H   -3.281684    0.031240    0.729481
 H   -5.125899    1.736082    0.215793
 H   -5.121338    2.275058   -2.041258
 H   -4.915846    4.447641   -1.081660
 H   -3.407867    4.458541   -2.007529
 H   -2.449671    5.939258    0.296406
 H   -1.304548    5.469635    2.443749
 H   -1.394411    3.208465    3.448259
 H   -2.647996    1.390770    2.339268
 H   -3.350472    1.152419   -2.685849
 H   -5.084453   -4.394988   -1.336456
 H   -5.880295   -4.645346    0.232921
 H   -4.108295   -4.624826    0.128555
 H   -6.301136   -2.193534   -1.739901
 H   -7.190316   -2.541038   -0.235551
 H   -6.377901   -0.981517   -0.458473
 H    0.174158   -3.430659    2.516103
 H    4.558642   -1.812795   -0.394694
 H    6.148652   -1.284762    0.156682
 H    5.602797   -0.899177   -1.492677
 H    5.050220    3.429691   -2.393673
 H    4.805214    4.858285   -1.368669
 H    3.908265    4.676542   -2.902248
 H    1.904774    4.936328   -1.840443
 H    2.446122    5.021245   -0.169725
 H    0.986053    3.182158    0.487612
 H   -0.005188    4.173924   -0.578016
 H    1.671226    2.076641   -1.663534
 H   -0.977113    3.101635   -2.468417
 H    0.594412    3.427619   -3.256824
 H   -0.105712    1.796867   -3.301851
 H    0.010100    0.351877   -1.377525
 H   -1.004579    1.513475   -0.481963
 H    0.563349    0.988506    0.194726
