95 
5yic_ligand_xtb.xyz
 C    4.298981   -3.392519   -2.062291
 C    1.738433    0.715274    0.917861
 C    3.224168    0.985456    1.142239
 C    1.473541   -0.747210    0.503072
 C    3.582913   -3.147979   -0.897320
 C    1.507623    4.604772    1.593343
 C    0.160745    4.289227    1.663985
 C    2.123015    3.537081   -2.025225
 C    1.569114    3.863184   -0.671860
 C   -0.882756   -1.237213   -2.024384
 C   -3.900918    1.501051   -0.384375
 C   -2.824446    0.166758   -2.280860
 C   -4.109120    0.491107   -1.504675
 C   -0.268395    2.956299   -1.889338
 S   -4.546054   -1.144611   -0.761522
 S    3.812320    0.443638    2.783453
 O    1.452658    1.303411   -2.535093
 O   -2.301935    2.107856   -3.571812
 O   -0.631020   -3.616246   -1.935431
 O   -0.371234   -0.696315   -3.002186
 O    1.088506   -1.565296    1.313918
 O   -0.954936    0.744326    0.934011
 N   -2.075987   -0.854530   -1.557832
 N   -1.094653    1.790073   -1.694288
 N    1.700050   -0.979042   -0.796520
 N    0.949614    0.969770    2.105160
 N   -4.768413   -3.577933    2.444877
 C   -2.793373   -1.499159   -0.482973
 C   -2.033885    1.447812   -2.587960
 C    1.049738    2.645471   -2.675161
 C   -5.206674    0.945120   -2.454765
 C    0.215314    3.545858   -0.596743
 C   -0.186546   -2.421422   -1.337682
 C    1.343078   -2.227817   -1.447151
 C   -0.500695    3.761945    0.564528
 C    2.222391    4.398815    0.421494
 C    2.106163   -3.412216   -0.834780
 C    4.244863   -2.598846    0.193617
 C    5.648417   -3.096444   -2.135559
 C    5.593357   -2.296986    0.120800
 C    6.298384   -2.544152   -1.044725
 C   -0.384570    0.795473    2.015811
 C   -1.147331    0.707675    3.321325
 C    3.879044    2.060968    3.618885
 C   -2.133161   -0.425665    3.188397
 C   -3.491999   -0.189858    3.031131
 C   -1.670366   -1.735867    3.122659
 C   -4.372979   -1.231637    2.818652
 C   -2.543909   -2.781795    2.910302
 C   -3.910787   -2.546145    2.746012
 H    3.796465   -3.823534   -2.917003
 H    1.379644    1.372301    0.119487
 H    3.433102    2.051323    1.068168
 H    3.808867    0.446132    0.397109
 H    2.006243    5.020879    2.457168
 H   -0.380217    4.460228    2.583038
 H    3.071683    3.001722   -1.973276
 H    2.271948    4.448068   -2.607292
 H   -4.801230    1.550542    0.224735
 H   -3.065911    1.219887    0.252625
 H   -3.711607    2.487478   -0.805407
 H   -3.100702   -0.241618   -3.264300
 H   -0.858121    3.683159   -2.463403
 H    0.766155    0.725882   -2.921166
 H   -0.414674   -3.583073   -2.876112
 H   -0.957422    1.256490   -0.841384
 H    1.893980   -0.186976   -1.397295
 H    1.413089    0.713624    2.969249
 H   -5.752619   -3.406399    2.559489
 H   -4.460798   -4.511033    2.660029
 H   -2.669024   -2.581597   -0.501703
 H   -2.488786   -1.098665    0.488515
 H    0.918165    2.874521   -3.739828
 H   -5.477316    0.144802   -3.139332
 H   -4.851866    1.795497   -3.034255
 H   -6.092928    1.236574   -1.897198
 H   -0.452689   -2.485236   -0.280867
 H    1.612557   -2.120782   -2.503396
 H   -1.550337    3.517514    0.615748
 H    3.270681    4.655521    0.364419
 H    1.787798   -3.530054    0.200321
 H    1.844648   -4.314497   -1.389115
 H    3.701230   -2.409294    1.107614
 H    6.194744   -3.296082   -3.046054
 H    6.092658   -1.869146    0.978133
 H    7.351596   -2.311120   -1.102531
 H   -1.677909    1.649909    3.475721
 H   -0.462279    0.543990    4.154162
 H    4.098056    1.865376    4.663388
 H    4.674907    2.658069    3.182637
 H    2.923347    2.567799    3.522130
 H   -3.869246    0.822334    3.073290
 H   -0.613311   -1.935684    3.214344
 H   -5.426849   -1.033792    2.689084
 H   -2.170786   -3.794219    2.854676
