93 
5yid_ligand_ani.xyz
 C    1.873378   -0.577615    0.436316
 C    2.315062   -0.022397    1.781010
 C    3.792862   -0.231219    2.048894
 C    4.245591   -0.821563    3.228056
 C    5.608120   -1.013967    3.449136
 C    6.533639   -0.615723    2.490813
 C    6.091445   -0.024829    1.309354
 C    4.731010    0.160267    1.089763
 O    1.187313    0.075090   -0.351052
 N    2.267714   -1.855559    0.187069
 C    2.163780   -2.459065   -1.127568
 C    2.910603   -3.799564   -1.167882
 S    4.613164   -3.764836   -0.550468
 C    5.343542   -2.481280   -1.590672
 C    0.716376   -2.698569   -1.590719
 O    0.470224   -2.770772   -2.784068
 C   -1.765991   -0.606420    0.767190
 N   -0.211240   -2.837359   -0.608593
 O   -1.081784   -1.227341    1.578807
 C   -2.016323   -1.123806   -0.666332
 C   -3.915343   -3.332908    0.011095
 C   -2.422958   -3.555177    0.055000
 C   -6.678221   -2.863330   -0.094605
 C   -1.621752   -2.605940   -0.845865
 O   -1.303436   -0.288782   -1.553274
 C   -4.664417   -3.730240   -1.099151
 C   -4.568511   -2.683993    1.062194
 C   -6.036363   -3.501282   -1.152417
 C   -5.940589   -2.453774    1.012664
 C   -2.289439    2.431078   -0.659150
 N   -2.283190    0.615873    1.099475
 O   -2.870195    3.059905   -1.535825
 C   -3.089788    1.493357    0.256777
 C   -4.048452    2.260601    1.223776
 C   -2.052139    1.081113    2.470419
 C   -5.175590    1.315629    1.650726
 C   -4.635273    3.555582    0.673634
 S   -2.969194    2.639502    2.650641
 N   -0.956416    2.555104   -0.434031
 O    0.111523    1.761316   -3.004972
 C   -0.181333    3.468448   -1.238563
 C    1.259256    3.565595   -0.804695
 C    1.781159    3.502527    0.479310
 C    3.155240    3.664403    0.648305
 C   -0.065691    3.136123   -2.762210
 C    2.080192    3.788813   -1.909214
 C    3.447999    3.956236   -1.740392
 C    3.981042    3.890905   -0.452056
 C    1.247685    3.824893   -3.176157
 H    1.705756   -0.490443    2.566479
 H    2.069583    1.042411    1.769059
 H    3.526508   -1.137052    3.981613
 H    5.944589   -1.477476    4.373675
 H    7.596456   -0.765134    2.660973
 H    6.809174    0.281202    0.550547
 H    4.386266    0.606482    0.158100
 H    2.983206   -2.248682    0.787617
 H    2.572465   -1.787828   -1.894761
 H    2.393152   -4.529771   -0.535233
 H    2.891811   -4.189896   -2.190844
 H    5.107744   -2.640089   -2.647915
 H    6.426829   -2.551880   -1.466626
 H    5.021535   -1.480543   -1.286209
 H    0.083952   -2.694397    0.350057
 H   -3.084024   -1.039971   -0.892397
 H   -2.175900   -4.578112   -0.254117
 H   -2.067222   -3.426214    1.081447
 H   -7.749294   -2.685319   -0.134741
 H   -1.792505   -2.845867   -1.901690
 H   -0.366481   -0.292975   -1.259287
 H   -4.164521   -4.227456   -1.929670
 H   -3.985717   -2.358592    1.923081
 H   -6.605731   -3.823021   -2.021345
 H   -6.439433   -1.956601    1.842564
 H   -3.697602    0.895528   -0.428939
 H   -2.397984    0.329868    3.190291
 H   -0.983889    1.248642    2.646564
 H   -4.782225    0.359559    2.015212
 H   -5.829707    1.120017    0.793670
 H   -5.773291    1.765874    2.447922
 H   -5.299397    3.999323    1.421579
 H   -3.863346    4.283390    0.416994
 H   -5.213621    3.346727   -0.231456
 H   -0.455298    1.857571    0.103831
 H   -0.626096    1.264544   -2.612850
 H   -0.658564    4.457120   -1.184642
 H    1.133976    3.348442    1.340546
 H    3.589205    3.613131    1.645792
 H   -0.938352    3.529838   -3.304872
 H    4.099150    4.139653   -2.592338
 H    5.050447    4.020192   -0.304147
 H    1.063984    4.859835   -3.493439
 H    1.704784    3.284128   -4.007921
