64 
5yjo_ligand_dft.xyz
 C   -1.070877   -1.312339   -1.142146
 C   -1.447238   -2.530465   -0.517380
 C   -0.445508   -3.501690   -0.253349
 C    0.874923   -3.219497   -0.492097
 C    1.249872   -1.969584   -1.047427
 C    0.289039   -1.067307   -1.427617
 C   -3.193876   -0.453066   -0.931209
 C   -3.653828   -1.596417   -0.221935
 C   -2.782004   -2.642367   -0.051533
 C   -4.114519    0.737295   -0.955803
 C   -4.481711    1.113451    0.502308
 C   -4.922481   -0.141662    1.317893
 C   -4.980301   -1.434033    0.469044
 C   -3.350052    1.911727    1.173524
 C    2.666413   -1.479149   -1.178429
 C    4.534830   -0.445833   -0.103256
 C    4.023895    1.012669   -0.020607
 C    2.903589    0.064643    1.935782
 C    2.777515   -1.354679    1.329312
 C    3.391059   -2.417973    2.231227
 C    1.651332    1.549018    0.506910
 C    0.483127    2.812356   -1.131255
 C    0.031637    4.071343   -0.404893
 C    1.055848    5.202495   -0.477469
 N   -1.958707   -0.297208   -1.356350
 N   -2.029783    1.201585    1.132960
 N    3.386492   -1.340199   -0.010962
 N    2.852713    1.046019    0.865689
 O    3.103720   -1.126208   -2.260068
 O    0.611139    1.353086    1.145110
 O    1.709909    2.282758   -0.607979
 H   -0.733207   -4.452157    0.186669
 H    1.643039   -3.943148   -0.237572
 H    0.567209   -0.125976   -1.889885
 H   -3.081844   -3.529203    0.502769
 H   -5.034045    0.499401   -1.500881
 H   -3.634530    1.569571   -1.479564
 H   -5.318775    1.817536    0.462131
 H   -4.227550   -0.320917    2.150275
 H   -5.896524    0.040662    1.779361
 H   -5.798016   -1.363932   -0.258165
 H   -5.199759   -2.291525    1.111021
 H   -3.573060    2.120416    2.222511
 H   -3.192689    2.861831    0.657393
 H    5.228888   -0.679399    0.708105
 H    5.047476   -0.610103   -1.049226
 H    4.802361    1.679741    0.364616
 H    3.725466    1.355745   -1.009354
 H    2.099867    0.252637    2.646131
 H    3.855616    0.186384    2.463510
 H    1.713003   -1.557450    1.207953
 H    4.470470   -2.270835    2.342475
 H    2.940113   -2.377323    3.228458
 H    3.226691   -3.416682    1.818268
 H    0.720849    3.035531   -2.173574
 H   -0.280601    2.027712   -1.121446
 H   -0.184397    3.833271    0.643632
 H   -0.911401    4.391234   -0.867536
 H    1.265690    5.472863   -1.517606
 H    1.999295    4.908926   -0.008673
 H    0.686715    6.095165    0.034493
 H   -2.039881    0.333112    1.674051
 H   -1.781519    0.919837    0.167461
 H   -1.202222    1.734985    1.448782
