68 
5yjp_ligand_dft.xyz
 C    0.301350    0.020218    0.573946
 O   -0.210024   -0.531150    1.541299
Cl    7.307494   -2.335632    1.793386
 C    5.898132   -2.461426    0.764592
 C    6.010319   -3.025249   -0.494280
 C    4.879299   -3.123207   -1.303479
 C    3.649138   -2.656496   -0.847081
 O    2.498239   -2.713381   -1.568620
 C    2.539902   -3.298286   -2.852508
 C    4.669553   -1.994219    1.225546
 C    3.531880   -2.080926    0.432339
 C    2.198275   -1.574966    0.921302
 C    1.743693   -0.299312    0.189360
 C    2.644053    0.894087    0.546504
 N    2.625043    1.969887   -0.430156
 C    1.485642    2.471585   -1.010757
 N    1.365834    3.684429   -1.427676
 O    2.515008    4.416435   -1.107459
 C    2.333104    5.763433   -1.513502
 C    3.587404    6.524388   -1.132088
 C    0.330392    1.570210   -1.350736
 N   -0.339681    0.977953   -0.186199
 C   -1.691440    1.434802    0.027954
 O   -2.217801    2.166225   -0.792923
 N   -2.280566    1.030098    1.170865
 C   -3.680238    1.343125    1.428342
 C   -3.902558    1.515742    2.935093
 C   -3.109310    2.683650    3.516503
 C   -4.590463    0.302985    0.791826
 C   -5.244459    0.596446   -0.405707
 C   -6.059407   -0.346387   -1.020875
 C   -4.754755   -0.964694    1.358193
 C   -5.566337   -1.910602    0.750690
 C   -6.226755   -1.604807   -0.441245
 C   -7.088227   -2.650788   -1.048625
 O   -7.679546   -2.253276   -2.193853
 O   -7.263369   -3.756903   -0.588564
 H    6.967681   -3.389867   -0.849826
 H    4.979096   -3.569090   -2.285894
 H    3.209437   -2.744526   -3.522372
 H    1.521504   -3.247417   -3.238576
 H    2.857103   -4.347148   -2.803183
 H    4.597041   -1.560553    2.218443
 H    2.244592   -1.381378    1.997340
 H    1.435064   -2.344303    0.777007
 H    1.817802   -0.483121   -0.885679
 H    3.675948    0.534304    0.596879
 H    2.373750    1.249695    1.554145
 H    3.299584    2.702706   -0.250804
 H    2.159385    5.797613   -2.596165
 H    1.448176    6.178639   -1.015701
 H    3.752755    6.479890   -0.051291
 H    3.491170    7.574642   -1.423777
 H    4.463928    6.103830   -1.634086
 H   -0.417132    2.177233   -1.856769
 H    0.651056    0.779494   -2.035442
 H   -1.805299    0.313647    1.711168
 H   -3.870165    2.302427    0.939593
 H   -4.975232    1.664499    3.101821
 H   -3.634124    0.590087    3.460588
 H   -2.034360    2.538034    3.373370
 H   -3.299549    2.789265    4.588865
 H   -3.385696    3.625207    3.029340
 H   -5.096010    1.568356   -0.866662
 H   -6.563391   -0.108193   -1.950915
 H   -4.243615   -1.221230    2.281849
 H   -5.702056   -2.894459    1.187472
 H   -8.209413   -3.008534   -2.493011
