40 
5yjy_ligand_xtb.xyz
 C   -2.040732    1.146565    1.257368
 O   -2.430756    1.637314    2.459368
 C   -1.045848    1.804104    0.569931
 C   -0.587594    1.359878   -0.665737
 N   -1.105702    0.258253   -1.235418
 O   -0.688984   -0.155931   -2.358930
 C   -2.116186   -0.431827   -0.590120
 C   -2.650814   -1.569026   -1.213549
 C   -3.654578   -2.282206   -0.616744
 C   -4.152090   -1.879998    0.628841
 C   -3.642147   -0.775699    1.255618
 C   -2.609455   -0.013153    0.668008
 C    0.502383    2.054776   -1.415667
 C    2.365190    1.278036    0.131196
 C    1.832628    1.297113   -1.298933
 C    3.707559    0.555607    0.256577
 C    3.581822   -0.959326    0.105937
 C    4.928970   -1.681960    0.140346
 C    5.619353   -1.609728    1.497552
 H   -3.132417    1.091979    2.834127
 H   -0.608549    2.688002    1.004536
 H   -2.238707   -1.845626   -2.172019
 H   -4.065595   -3.154024   -1.101278
 H   -4.943744   -2.446506    1.095689
 H   -4.045660   -0.487889    2.218067
 H    0.615458    3.073710   -1.044467
 H    0.220382    2.079789   -2.471307
 H    1.637918    0.797793    0.790366
 H    2.487476    2.310049    0.471810
 H    2.564700    1.778336   -1.950217
 H    1.675816    0.282635   -1.664709
 H    4.132237    0.783664    1.235904
 H    4.394708    0.938689   -0.501782
 H    3.096236   -1.186722   -0.844412
 H    2.944431   -1.347780    0.904312
 H    5.584408   -1.256262   -0.622927
 H    4.765260   -2.731837   -0.114743
 H    5.894508   -0.587358    1.742997
 H    4.962475   -1.987174    2.278502
 H    6.525717   -2.211234    1.492229
