47 
5ykp_ligand_xtb.xyz
 C   -3.094777    1.944451    0.419234
 C   -3.362551    0.491864    0.113480
 C   -2.183578   -0.415572    0.451072
 C   -0.933729    0.072712   -0.337528
 C   -0.627143    1.539474    0.061505
 C   -1.839584    2.405000   -0.322057
 O   -0.435209    1.564145    1.466176
 C    0.619167    2.059358   -0.656905
 C    0.258637   -0.878502   -0.089369
 C    1.205663   -1.082872   -1.201254
 C    2.663913   -1.437945   -0.986047
 C    3.482167   -0.192432   -0.827260
 C    4.293427    0.139828    0.169994
 C    0.740722   -1.061831    1.334215
 O    0.225027   -2.035253   -0.890927
 C    4.582353   -0.700231    1.377915
 C    5.036860    1.445140    0.156165
 O   -2.403915   -1.757095    0.097229
 C   -3.270463   -2.453370    0.958143
 O   -4.397303    0.085960   -0.346422
 O   -1.247243    0.061443   -1.708195
 H   -2.933560    2.044943    1.495310
 H   -3.959142    2.541451    0.126875
 H   -1.988905   -0.315940    1.530436
 H   -1.993285    2.324028   -1.397222
 H   -1.633492    3.449224   -0.074433
 H   -0.117917    2.443779    1.702487
 H    1.502521    1.529053   -0.311648
 H    0.508981    1.914927   -1.726397
 H    0.743193    3.122742   -0.457021
 H    1.017109   -0.539905   -2.125180
 H    2.758464   -2.105104   -0.133157
 H    3.008784   -1.979615   -1.872939
 H    3.375162    0.499898   -1.654146
 H    1.072120   -2.088353    1.468230
 H   -0.051922   -0.861237    2.045554
 H    1.564073   -0.383179    1.542571
 H    4.358364   -0.138413    2.284601
 H    4.011694   -1.622182    1.392390
 H    5.642226   -0.952815    1.402729
 H    4.796258    2.029740   -0.727693
 H    6.111418    1.265838    0.172881
 H    4.788162    2.030761    1.041030
 H   -4.286791   -2.051013    0.922446
 H   -3.274462   -3.483066    0.606907
 H   -2.905152   -2.421325    1.993081
 H   -1.471253   -0.858285   -1.918402
