49 
5yl2_ligand_dft.xyz
 C   -6.652083   -1.637642    1.601381
 O   -6.308197   -0.567612    0.751383
 C   -5.001441   -0.238093    0.652356
 C   -3.957046   -0.868679    1.317330
 C   -2.642461   -0.436679    1.138566
 C   -2.342226    0.625487    0.290061
 C   -0.943560    1.018647    0.114753
 C   -0.452824    1.902079   -0.765489
 C    0.969176    2.292201   -0.855897
 O    1.264614    3.344889   -1.403685
 C    2.054040    1.466898   -0.223695
 C    3.087078    2.157383    0.409413
 C    4.161078    1.511081    1.006430
 C    4.223534    0.117854    0.958333
 O    5.212781   -0.619910    1.517008
 C    6.240442    0.055722    2.208749
 C    3.224264   -0.616114    0.300372
 C    3.206758   -2.075831    0.262755
 C    2.353847   -2.707832   -0.544672
 C    1.466927   -1.924987   -1.482353
 C    2.149895   -1.731797   -2.839546
 C    0.094465   -2.571786   -1.634447
 O    1.182629   -0.620685   -0.931315
 C    2.158453    0.067815   -0.298650
 C   -3.404673    1.261994   -0.376153
 C   -4.711513    0.847059   -0.205885
 O   -5.769173    1.431857   -0.823933
 H   -6.184863   -2.576192    1.275814
 H   -6.366353   -1.432936    2.641343
 H   -7.736324   -1.733679    1.537559
 H   -4.154809   -1.701027    1.982627
 H   -1.840288   -0.944271    1.666826
 H   -0.245040    0.504795    0.770968
 H   -1.094666    2.467787   -1.436011
 H    3.036960    3.241347    0.421559
 H    4.931961    2.094165    1.494787
 H    6.798925    0.724112    1.542089
 H    5.843218    0.632730    3.052959
 H    6.908764   -0.720099    2.583724
 H    3.880056   -2.615802    0.919041
 H    2.296785   -3.792129   -0.582436
 H    3.100531   -1.204420   -2.713952
 H    2.355044   -2.702327   -3.303339
 H    1.506653   -1.148799   -3.506555
 H    0.189773   -3.562176   -2.091031
 H   -0.386328   -2.677111   -0.657606
 H   -0.544366   -1.951083   -2.269153
 H   -3.205705    2.104454   -1.034607
 H   -5.443934    2.155680   -1.372545
