49 
5yl2_ligand_xtb.xyz
 C   -6.495588   -1.494415    1.820204
 O   -6.110110   -0.632636    0.779185
 C   -4.814214   -0.238032    0.711746
 C   -3.804452   -0.630069    1.579196
 C   -2.513097   -0.160179    1.420118
 C   -2.181620    0.717666    0.390567
 C   -0.813062    1.166658    0.260579
 C   -0.321085    2.004276   -0.662488
 C    1.080233    2.436312   -0.701411
 O    1.396005    3.524027   -1.152856
 C    2.102569    1.514958   -0.141173
 C    3.166822    2.062468    0.567382
 C    4.164030    1.280436    1.115147
 C    4.121825   -0.100770    0.953173
 O    5.035995   -0.967560    1.465117
 C    6.110201   -0.451847    2.213008
 C    3.080885   -0.678403    0.209024
 C    2.953890   -2.115454    0.048760
 C    2.049902   -2.614213   -0.788050
 C    1.202941   -1.713569   -1.644452
 C    1.835841   -1.592597   -3.040601
 C   -0.231393   -2.238788   -1.743929
 O    1.082485   -0.394262   -1.090356
 C    2.083984    0.127493   -0.354532
 C   -3.201905    1.108312   -0.485583
 C   -4.492526    0.647474   -0.339881
 O   -5.495646    1.015349   -1.181115
 H   -5.967022   -2.452091    1.768021
 H   -6.327622   -1.039989    2.802331
 H   -7.561776   -1.664635    1.680390
 H   -4.018133   -1.307368    2.390607
 H   -1.747342   -0.483194    2.109783
 H   -0.134797    0.765498    1.003639
 H   -0.957321    2.491313   -1.387448
 H    3.192852    3.134759    0.689238
 H    4.961119    1.752369    1.665666
 H    6.736765    0.213260    1.610785
 H    5.761686    0.082255    3.102656
 H    6.695870   -1.317314    2.519648
 H    3.593799   -2.741428    0.649446
 H    1.903105   -3.674437   -0.918226
 H    2.834144   -1.168315   -2.954901
 H    1.907984   -2.570951   -3.507759
 H    1.230277   -0.939251   -3.663872
 H   -0.247624   -3.199573   -2.250203
 H   -0.656185   -2.349103   -0.748924
 H   -0.839480   -1.529074   -2.298081
 H   -2.983157    1.786929   -1.297512
 H   -5.152045    1.624697   -1.845931
