50 
5ylj_ligand_ani.xyz
 C    7.641210    0.183391    0.351834
 O    6.581769    0.353738    1.267803
 C    5.332213    0.030636    0.846051
 C    5.028952   -0.449185   -0.427307
 C    3.711000   -0.751978   -0.755284
 C    2.676175   -0.586240    0.165792
 C    1.274043   -0.897124   -0.135634
 C    0.833700   -1.535624   -1.229826
 C   -0.580770   -1.872569   -1.544765
 O   -0.799049   -2.636492   -2.470537
 C   -1.737387   -1.359117   -0.719661
 C   -2.696408   -2.285833   -0.335331
 C   -3.766254   -1.936058    0.483791
 C   -3.880140   -0.614713    0.910729
 O   -4.870732   -0.173884    1.733184
 C   -5.842836   -1.107514    2.144804
 C   -2.967557    0.369529    0.499076
 C   -3.130770    1.800336    0.960184
 C   -1.956398    2.652562    0.495703
 C   -1.542918    2.288748   -0.930120
 C   -0.312774    3.088721   -1.340544
 C   -2.674625    2.495677   -1.937932
 O   -1.122403    0.915145   -0.947762
 C   -1.952684   -0.001905   -0.383881
 C    3.004888   -0.097246    1.439244
 C    4.307889    0.206643    1.783266
 H    7.737667   -0.864972    0.039928
 H    7.506775    0.811083   -0.539000
 H    8.546757    0.489621    0.877312
 H    5.803747   -0.593404   -1.172717
 H    3.500536   -1.113827   -1.759198
 H    0.559062   -0.568967    0.621356
 H    1.513920   -1.922799   -1.984406
 H   -2.590020   -3.309789   -0.682968
 H   -4.489321   -2.687377    0.780133
 H   -6.384708   -1.528176    1.287217
 H   -5.394415   -1.927999    2.720557
 H   -6.539925   -0.558451    2.779362
 H   -3.232842    1.838177    2.048907
 H   -4.073748    2.199302    0.563167
 H   -1.092999    2.482336    1.149896
 H   -2.198265    3.721526    0.539915
 H   -0.541601    4.159651   -1.353026
 H    0.507416    2.916295   -0.637056
 H    0.016408    2.790584   -2.340545
 H   -3.557000    1.896727   -1.690773
 H   -2.968728    3.551069   -1.958542
 H   -2.338210    2.206514   -2.937669
 H    2.215668    0.035456    2.176226
 H    4.565855    0.582544    2.769286
