52 
5yls_ligand_dft.xyz
 C    6.556846   -1.761398   -1.513945
 O    6.235257   -0.627007   -0.742715
 C    4.925394   -0.260020   -0.663385
 C    3.869835   -0.920085   -1.273953
 C    2.566025   -0.451850   -1.108132
 C    2.304029    0.669940   -0.323030
 C    0.912551    1.090974   -0.145873
 C    0.441163    2.009725    0.707697
 C   -0.982398    2.398237    0.809945
 O   -1.274188    3.471215    1.318352
 C   -2.066244    1.537998    0.224390
 C   -3.087961    2.183695   -0.462199
 C   -4.141305    1.489318   -1.044960
 C   -4.174183    0.101200   -0.925148
 O   -5.141673   -0.686453   -1.460648
 C   -6.174681   -0.066975   -2.193989
 C   -3.179893   -0.592745   -0.218479
 C   -3.213071   -2.097075   -0.128209
 C   -1.850949   -2.627742    0.309487
 C   -1.296519   -1.832635    1.493119
 C    0.133862   -2.247514    1.815760
 C   -2.190379   -1.929268    2.731005
 O   -1.185729   -0.446159    1.126059
 C   -2.149658    0.137871    0.376180
 C    3.383393    1.332547    0.282410
 C    4.689230    0.890517    0.124760
 N    5.775850    1.567329    0.666311
 H    6.071131   -2.664030   -1.121150
 H    6.269992   -1.623944   -2.564107
 H    7.639430   -1.876108   -1.448135
 H    4.046316   -1.800353   -1.881624
 H    1.745662   -0.974570   -1.592328
 H    0.197764    0.561604   -0.772439
 H    1.096150    2.594506    1.348237
 H   -3.046109    3.265606   -0.536842
 H   -4.912218    2.031437   -1.578407
 H   -6.752153    0.624443   -1.567888
 H   -5.781013    0.474612   -3.063202
 H   -6.825344   -0.873087   -2.535252
 H   -3.487567   -2.514163   -1.102072
 H   -3.998193   -2.422535    0.566354
 H   -1.137770   -2.542401   -0.520260
 H   -1.912601   -3.687572    0.578629
 H    0.164196   -3.293125    2.139256
 H    0.775047   -2.128118    0.936567
 H    0.537550   -1.620124    2.615816
 H   -3.184080   -1.514171    2.538742
 H   -2.304928   -2.973544    3.041023
 H   -1.744494   -1.366167    3.555883
 H    3.208117    2.224246    0.878058
 H    6.610781    1.005539    0.751899
 H    5.573525    2.099667    1.499977
