52 
5yls_ligand_ani.xyz
 C    6.796203    0.901289   -2.146872
 O    6.394095    0.298755   -0.934424
 C    5.086093    0.436531   -0.574118
 C    4.123040    1.115906   -1.308947
 C    2.810291    1.172670   -0.846538
 C    2.446350    0.560036    0.352378
 C    1.047136    0.645187    0.790584
 C    0.570516    0.303646    1.996787
 C   -0.856358    0.348568    2.409832
 O   -1.122960    0.261306    3.596632
 C   -1.976747    0.555155    1.413253
 C   -2.955642    1.491378    1.749204
 C   -3.985913    1.812810    0.875475
 C   -4.077385    1.152079   -0.346933
 O   -5.121623    1.409427   -1.205356
 C   -5.050014    2.664302   -1.855990
 C   -3.167926    0.155058   -0.687326
 C   -3.213145   -0.653670   -1.952769
 C   -3.106626   -2.127988   -1.568973
 C   -1.964876   -2.404920   -0.557289
 C   -0.849049   -3.229010   -1.192584
 C   -2.515427   -3.121586    0.679047
 O   -1.317450   -1.184803   -0.131726
 C   -2.153365   -0.171922    0.216845
 C    3.430481   -0.117657    1.083783
 C    4.746137   -0.192071    0.644463
 N    5.745014   -0.809288    1.385114
 H    6.244177    0.486493   -3.000357
 H    6.650231    1.988985   -2.118879
 H    7.858011    0.679790   -2.258865
 H    4.381851    1.601272   -2.244387
 H    2.065206    1.710277   -1.427814
 H    0.358375    1.019777    0.031340
 H    1.223134    0.007786    2.814520
 H   -2.880604    1.985357    2.713192
 H   -4.735380    2.556835    1.132726
 H   -5.076451    3.498722   -1.141931
 H   -4.135662    2.739629   -2.460019
 H   -5.924330    2.727429   -2.506861
 H   -2.372314   -0.372187   -2.600022
 H   -4.134588   -0.449759   -2.503659
 H   -2.980156   -2.759014   -2.456861
 H   -4.058166   -2.428358   -1.111123
 H   -1.226731   -4.201833   -1.526504
 H   -0.427565   -2.700038   -2.053200
 H   -0.050929   -3.389696   -0.462346
 H   -3.287959   -2.517543    1.166996
 H   -2.956285   -4.081508    0.387281
 H   -1.709697   -3.305020    1.396199
 H    3.175356   -0.614712    2.017870
 H    6.579176   -1.030206    0.861339
 H    5.447058   -1.539698    2.014694
