52 
5yof_ligand_ani.xyz
 N   -2.089368   -1.850214    0.184202
 C   -1.150537   -0.878041    0.703501
 C   -3.787020   -2.773843   -1.295296
 C   -3.004789   -1.585356   -0.779003
 C    2.609416   -1.365917    0.784177
 C    3.685038   -0.419988    1.274691
 C    2.881482   -1.842275   -0.668791
 C    2.345051   -1.000642   -1.833429
 C    2.985225    0.368733   -2.096679
 C    1.488026    1.856536   -0.779439
 C    0.194931   -1.595292    0.868688
 O    0.274943   -2.818080    0.866755
 N    1.291191   -0.802757    0.982572
 N    2.748293    1.400624   -1.100192
 N    0.424650    1.818792   -1.506096
 N    1.401279    2.373799    0.502297
 O   -3.210224   -0.457502   -1.222731
 O    3.483026    0.699269    1.686580
 C   -1.623099   -0.250497    2.032573
 C   -2.648065    0.865110    1.797800
 C   -1.984730    2.151231    1.264508
 C   -2.761759    2.891634    0.168367
 N   -2.553151    2.242060   -1.157660
 H   -1.820283   -2.811608    0.357272
 H   -1.034570   -0.084197   -0.046636
 H   -3.562569   -2.904469   -2.357716
 H   -4.853780   -2.550618   -1.212750
 H   -3.569146   -3.704087   -0.764114
 H    2.696451   -2.266199    1.408165
 H    4.724799   -0.815911    1.229942
 H    2.432478   -2.835746   -0.753585
 H    3.967000   -1.980928   -0.771646
 H    2.484362   -1.593785   -2.746431
 H    1.261047   -0.866508   -1.728610
 H    4.073622    0.265853   -2.189133
 H    2.637875    0.732872   -3.072558
 H    1.206534    0.204248    1.096356
 H    3.400706    1.404587   -0.328579
 H    0.613190    1.459063   -2.437316
 H    0.682677    3.074084    0.619873
 H    2.263366    2.577093    0.987957
 H   -0.757942    0.150935    2.579718
 H   -2.052125   -1.045576    2.651799
 H   -3.405908    0.496217    1.095132
 H   -3.177498    1.083923    2.731488
 H   -1.000828    1.903656    0.846558
 H   -1.790262    2.836832    2.097678
 H   -3.830272    2.896853    0.391991
 H   -2.429162    3.929796    0.106228
 H   -2.912901    1.267382   -1.140630
 H   -3.041196    2.757398   -1.908272
 H   -1.522907    2.224843   -1.372888
