20 
5ypp_ligand_ani.xyz
 N    0.032869    1.751394    0.111461
 C   -0.024858    0.396101   -0.542787
 C   -1.405220   -0.131073   -0.162500
 O   -2.196566    0.542894    0.458774
 C    1.127085   -0.545656   -0.141164
 C    2.470866   -0.048913   -0.676056
 C    1.186468   -0.799027    1.365978
 O   -1.657797   -1.375441   -0.580206
 H   -0.927487    1.885186    0.497214
 H    0.708799    1.742436    0.890902
 H    0.273820    2.501064   -0.556327
 H   -0.017614    0.527058   -1.625516
 H    0.897228   -1.497996   -0.629230
 H    2.423974    0.151056   -1.752250
 H    2.795014    0.872620   -0.177609
 H    3.251838   -0.798595   -0.506496
 H    1.890823   -1.609400    1.583707
 H    1.532742    0.079422    1.926252
 H    0.209165   -1.088578    1.767150
 H   -2.559531   -1.592250   -0.287395
