52 
5yr4_ligand_ani.xyz
 C   -1.545216   -2.173762   -0.363885
 C   -0.777883   -1.050339    0.377917
 C   -0.645503    0.228752   -0.473273
 C   -2.010523    0.728426   -0.959495
 C   -2.759204   -0.367501   -1.698095
 C   -2.896046   -1.631197   -0.852544
 C   -1.796579   -3.371526    0.549173
 O   -0.831147   -2.584784   -1.523100
 C    0.589508   -1.463253    0.935990
 C    1.747937   -1.480962    0.026071
 C    3.157660   -1.140792    0.451458
 C    3.326273    0.351524    0.476914
 C    4.154759    1.118277   -0.233553
 C    0.784588   -1.203385    2.412365
 O    1.169602   -2.704867    0.479015
 C    4.138373    2.617153   -0.085126
 C    5.149028    0.597994   -1.234022
 C    0.576360    2.266956   -0.337176
 O    0.000810    1.174186    0.349828
 C   -2.925080    2.467994    0.353120
 O   -2.789130    1.136309    0.178616
 N   -3.623876    2.725533    1.491584
 O   -2.521174    3.324280   -0.408698
 H   -1.394648   -0.761360    1.234920
 H   -0.043246    0.027400   -1.369097
 H   -1.877147    1.607878   -1.595869
 H   -3.746220    0.002215   -1.991418
 H   -2.205508   -0.599944   -2.615100
 H   -3.529186   -1.425194    0.019530
 H   -3.390275   -2.418278   -1.432966
 H   -2.409597   -3.070875    1.406764
 H   -2.337385   -4.145329   -0.006688
 H   -0.859843   -3.790458    0.920345
 H   -0.038969   -3.045062   -1.199044
 H    1.563504   -1.288969   -1.032149
 H    3.868305   -1.624592   -0.226165
 H    3.342481   -1.556816    1.445929
 H    2.620336    0.844446    1.150747
 H    0.793347   -0.125981    2.609101
 H    1.720921   -1.640534    2.761512
 H   -0.032362   -1.651740    2.990362
 H    3.385566    2.936753    0.644893
 H    5.113694    2.999177    0.242172
 H    3.920906    3.103800   -1.044990
 H    6.164444    0.917666   -0.969934
 H    5.150567   -0.490997   -1.311955
 H    4.939009    1.005007   -2.230714
 H   -0.185698    2.874672   -0.843635
 H    1.333905    1.940237   -1.065818
 H    1.063060    2.889164    0.419816
 H   -3.648890    3.684848    1.795209
 H   -3.756337    1.996982    2.172830
