43 
5yto_ligand_ani.xyz
 C   -3.782167    1.545686   -0.542825
 O   -3.517023    2.797047   -1.000418
 C   -4.889976    1.311481    0.281950
 O   -5.645672    2.419008    0.575982
 C   -5.154362    0.030837    0.740080
 O   -1.381573   -1.668388   -1.825043
 C   -4.315916   -1.021883    0.381323
 C   -3.215280   -0.803489   -0.440549
 C   -2.311941   -1.979458   -0.785944
 C   -1.420970   -2.430169    0.384507
 C    1.007802   -2.117143    0.953801
 C    2.136265   -1.110747    0.867329
 C    4.051345   -0.144557   -0.291952
 C    4.966211   -0.139047   -1.377955
 C    5.943092    0.816390   -1.464391
 C    6.055626    1.816793   -0.466199
 C    5.189169    1.833498    0.594681
 C    4.166532    0.853164    0.710139
 C    3.251816    0.835470    1.797762
 C    2.270445   -0.115578    1.872911
 C   -2.955885    0.491584   -0.899799
 C    3.022354   -1.119662   -0.181363
 N   -0.241278   -1.538965    0.409319
 H   -4.200389    3.388450   -0.651596
 H   -6.377278    2.166771    1.152550
 H   -6.014947   -0.148376    1.381977
 H   -1.876017   -1.580920   -2.649716
 H   -4.524156   -2.025734    0.746146
 H   -2.944671   -2.827682   -1.086502
 H   -1.960201   -2.419474    1.333913
 H   -1.084747   -3.455486    0.201141
 H    0.861236   -2.418452    1.997519
 H    1.263637   -3.017900    0.385139
 H    4.875687   -0.909158   -2.142006
 H    6.639344    0.815763   -2.299240
 H    6.835420    2.569284   -0.550573
 H    5.270051    2.598534    1.364314
 H    3.342652    1.596257    2.569869
 H    1.580429   -0.115856    2.715220
 H   -2.103242    0.689197   -1.543205
 H    2.951382   -1.881229   -0.955883
 H   -0.105635   -1.271261   -0.592898
 H   -0.470425   -0.680327    0.953394
