33 
5yun_ligand_ani.xyz
 C    4.683983    0.698710    0.203814
 C    4.003349   -0.497942    0.029118
 C    2.586475   -0.512221   -0.057752
 C    1.915358    0.708614    0.030022
 C    2.577581    1.916089    0.193467
 C    3.968355    1.893525    0.283152
 C    1.835623   -1.739906   -0.234618
 C    0.387055   -1.592017   -0.250503
 C   -0.195597   -0.369342   -0.109922
 C   -1.642529   -0.102914   -0.064444
 C   -2.104817    1.168018   -0.445670
 C   -3.454980    1.463924   -0.388985
 C   -4.356593    0.502620    0.069272
 C   -3.898086   -0.752150    0.451494
 C   -2.552460   -1.071588    0.376103
 O    0.561460    0.771474   -0.060608
 O    2.342727   -2.869798   -0.360978
 O   -4.870591   -1.614023    0.883162
 O   -5.673674    0.853485    0.118208
 O   -3.903249    2.685038   -0.764564
 O   -0.324000   -2.727722   -0.416694
 O    4.694354    3.025402    0.449850
 O    4.714664   -1.622381   -0.051200
 H    5.764418    0.703492    0.275959
 H    2.002565    2.834628    0.247149
 H   -1.410889    1.927774   -0.787129
 H   -2.213532   -2.059007    0.663530
 H   -4.470052   -2.460612    1.118331
 H   -6.173179    0.094407    0.453226
 H   -4.864873    2.691056   -0.643764
 H    0.331130   -3.440106   -0.513282
 H    4.095942    3.781995    0.485646
 H    4.088630   -2.365950   -0.184341
