44 
5ywx_ligand_ani.xyz
 C    7.941409   -1.547637    0.647249
 C    6.091797   -0.173619    0.007940
 C    8.768528   -0.666130   -0.038548
 C    8.183606    0.428338   -0.669186
 C   -2.358464   -1.339188   -0.276009
 C    2.924104    1.497991   -0.499268
 C    6.577073   -1.302960    0.672393
 C    0.550700    0.947044   -0.002163
 C    4.635540    0.115087    0.016469
 C   -3.741827   -1.404559   -0.298147
 O   -6.507837    1.580480    1.061375
 C   -6.799365    0.552888    0.483774
 C   -8.204826    0.004305    0.301454
 C   -8.054225   -1.054142   -0.787386
 C   -6.606655   -1.523121   -0.629152
 N   -5.919502   -0.343080   -0.104103
 C   -4.514426   -0.259598   -0.069580
 C   -3.857852    0.953028    0.168165
 C   -2.473869    1.018982    0.178217
 C   -1.708770   -0.127278   -0.038293
 N   -0.301506   -0.128044   -0.001171
 O    0.192657    2.112562   -0.048441
 C    2.001646    0.590601    0.025529
 N    4.226567    1.267157   -0.525202
 C    2.542600   -0.570839    0.574668
 N    3.847291   -0.809202    0.583237
 N    6.878141    0.681391   -0.651241
 H    8.354798   -2.415480    1.154737
 H    9.842384   -0.818172   -0.087092
 H    8.794578    1.143503   -1.218276
 H   -1.779557   -2.243444   -0.451481
 H    2.575762    2.440794   -0.916769
 H    5.885860   -1.960323    1.188539
 H   -4.219379   -2.360219   -0.488119
 H   -8.896365    0.811738    0.055019
 H   -8.519937   -0.426154    1.258847
 H   -8.189399   -0.608188   -1.776985
 H   -8.760504   -1.880953   -0.688489
 H   -6.164654   -1.836710   -1.578682
 H   -6.536023   -2.359356    0.080361
 H   -4.433922    1.849382    0.356001
 H   -1.977350    1.964109    0.355597
 H    0.122240   -1.033547   -0.133486
 H    1.925625   -1.324007    1.067420
