35 
5yzc_ligand_ani.xyz
 C   -2.422127    1.322211    0.131615
 C   -3.662388    0.764272    0.451640
 C   -3.863165   -0.605023    0.455565
 C   -2.777757   -1.411866    0.148549
 C   -1.518472   -0.912762   -0.131970
 C   -1.323515    0.464707   -0.119673
 C   -2.371863    2.818924    0.112738
 C    1.059295    0.347385   -0.812967
 C    2.352034    1.160186   -0.789630
 C    3.525930    0.404086   -0.201875
 C    4.023296   -0.736942   -0.834781
 C    5.110900   -1.417847   -0.302052
 C    5.706259   -0.976308    0.877753
 C    5.208998    0.152304    1.520339
 C    4.125498    0.839382    0.978058
 N   -1.420359    3.428219   -0.690443
 N   -2.956748   -2.869991    0.128614
 N   -0.034043    0.996302   -0.301217
 O   -3.134106    3.492079    0.783051
 O   -1.987763   -3.558106   -0.142392
 O   -4.066147   -3.305013    0.385313
 O    1.025271   -0.772709   -1.293026
 H   -4.471609    1.443839    0.696629
 H   -4.823184   -1.049326    0.686689
 H   -0.702749   -1.582945   -0.355548
 H    2.207062    2.108672   -0.259519
 H    2.564542    1.409613   -1.838020
 H    3.535161   -1.096756   -1.735773
 H    5.493589   -2.301975   -0.806258
 H    6.554235   -1.513936    1.294746
 H    5.665866    0.502163    2.443173
 H    3.739829    1.725365    1.479178
 H   -1.573744    4.424508   -0.776873
 H   -1.119202    2.964615   -1.538204
 H    0.072681    1.958197   -0.012324
