25 
5z4h_ligand_xtb.xyz
 C    2.409823   -1.221919    0.783023
 C    1.313527   -0.387134    0.732667
 C   -2.488402    1.134713    0.733833
 C   -3.599200    0.317332    0.708809
 C   -3.611444   -0.817983   -0.097208
 C   -1.381285    0.830838   -0.047785
 C   -1.395591   -0.288194   -0.867158
 C   -2.502413   -1.114629   -0.882694
 C    1.379249    0.804012    0.020886
 C    2.557144    1.164741   -0.617590
 C    3.660625    0.335321   -0.555123
 O   -4.721223   -1.602628   -0.086860
 S    0.011203    1.935658   -0.030756
 C    3.593280   -0.866046    0.141051
 O    4.650577   -1.717780    0.223140
 H    2.372932   -2.152567    1.326217
 H    0.403139   -0.662974    1.243345
 H   -2.471870    2.013722    1.359196
 H   -4.466076    0.536908    1.310838
 H   -0.540394   -0.518409   -1.484913
 H   -2.508918   -1.992075   -1.516069
 H    2.605544    2.096613   -1.159452
 H    4.578268    0.620345   -1.052684
 H   -4.604688   -2.346052   -0.690708
 H    5.406100   -1.349092   -0.250173
