25 
5z4h_ligand_ani.xyz
 C    2.837868   -0.581893    1.244124
 C    1.734263    0.256477    1.202806
 C   -2.646606    1.248069    0.298900
 C   -3.747554    0.407530    0.302115
 C   -3.593371   -0.933584   -0.051140
 C   -1.377565    0.771753   -0.045289
 C   -1.235138   -0.568359   -0.403956
 C   -2.336746   -1.417906   -0.405384
 C    1.375365    0.902694    0.017215
 C    2.162689    0.727207   -1.119061
 C    3.271443   -0.111567   -1.086328
 O   -4.706546   -1.715622   -0.031552
 S   -0.049519    1.956439   -0.040032
 C    3.607922   -0.770167    0.095534
 O    4.678412   -1.604748    0.192891
 H    3.121265   -1.097974    2.156314
 H    1.134478    0.408958    2.096483
 H   -2.768946    2.292865    0.572145
 H   -4.734546    0.770567    0.573824
 H   -0.263355   -0.963587   -0.684819
 H   -2.215250   -2.463524   -0.684460
 H    1.892803    1.236958   -2.040548
 H    3.874045   -0.250189   -1.982530
 H   -4.465769   -2.613164   -0.292865
 H    5.127231   -1.642513   -0.660984
