24 
5z4o_ligand_ani.xyz
 C   -2.712352    1.659486    0.158737
 C   -3.953039    1.057142   -0.003812
 C   -4.029569   -0.327635   -0.140938
 C   -2.875964   -1.097414   -0.115359
 C   -1.633423   -0.482349    0.041229
 C   -1.542929    0.900986    0.183615
 O   -0.551537   -1.330393    0.067395
 C    0.713792   -0.772418    0.019336
 C    1.280898   -0.425956   -1.202929
 C    2.561750    0.107321   -1.241832
 C    3.276410    0.289907   -0.057312
 C    2.707945   -0.069375    1.163654
 C    1.424214   -0.605206    1.198190
 O    4.527954    0.820056   -0.159698
 H   -2.645717    2.739128    0.267823
 H   -4.856588    1.660287   -0.023866
 H   -4.995062   -0.811155   -0.267681
 H   -2.911324   -2.178726   -0.213759
 H   -0.578623    1.384819    0.307319
 H    0.709626   -0.575711   -2.115322
 H    3.025365    0.390593   -2.182127
 H    3.264670    0.066934    2.089853
 H    0.959110   -0.890552    2.137182
 H    4.910818    0.890154    0.723536
