24 
5z4o_ligand_xtb.xyz
 C   -2.913412    1.387293    0.759821
 C   -4.047330    0.871324    0.156266
 C   -3.977140   -0.340793   -0.510457
 C   -2.780717   -1.027225   -0.585792
 C   -1.638435   -0.501529    0.011332
 C   -1.710684    0.707605    0.695168
 O   -0.502535   -1.263770   -0.049583
 C    0.733652   -0.666372   -0.043043
 C    1.001872    0.527283   -0.706507
 C    2.282906    1.039497   -0.721023
 C    3.318072    0.362887   -0.083511
 C    3.051907   -0.837082    0.564458
 C    1.768025   -1.347356    0.587187
 O    4.566319    0.906135   -0.123794
 H   -2.962694    2.325813    1.292144
 H   -4.982064    1.408421    0.209827
 H   -4.858526   -0.753066   -0.978687
 H   -2.708789   -1.973125   -1.099662
 H   -0.830706    1.105311    1.179657
 H    0.206221    1.048723   -1.217742
 H    2.502424    1.963854   -1.230724
 H    3.852451   -1.373890    1.055962
 H    1.553878   -2.279123    1.086329
 H    5.185236    0.334967    0.346515
