35 
5z5v_ligand_xtb.xyz
 C   -1.954955    1.376571    0.691269
 C   -2.190334    2.699910    0.425403
 C   -1.176512    3.546307   -0.033627
 C    0.092095    3.054630   -0.226210
 C    0.364050    1.685782    0.038971
 C   -0.670518    0.832670    0.500060
 C   -0.311962   -0.523691    0.733992
 C    0.978806   -0.924545    0.512654
 C    1.928810    0.016161    0.061972
 N    1.631993    1.272624   -0.170029
 O    1.098150    3.840353   -0.662879
 N    3.256581   -0.310202   -0.179006
 C   -1.333245   -1.528159    1.202160
 N   -2.398124   -1.682161    0.242844
 C   -3.729005   -1.733702    0.486011
 N   -4.423582   -1.882947   -0.606019
 C   -3.514891   -1.931124   -1.614026
 C   -2.252654   -1.810502   -1.110028
 C    3.897321   -1.514032   -0.033211
 O    3.360394   -2.526103    0.347472
 C    5.360518   -1.429706   -0.404003
 H   -2.760619    0.751761    1.041010
 H   -3.179850    3.105755    0.571228
 H   -1.375538    4.585678   -0.239009
 H    1.288748   -1.943255    0.674705
 H    1.883986    3.271341   -0.720323
 H    3.801250    0.478998   -0.502116
 H   -1.773468   -1.204858    2.151160
 H   -0.838925   -2.494163    1.363313
 H   -4.144079   -1.664448    1.472626
 H   -3.826625   -2.048435   -2.632067
 H   -1.290836   -1.800732   -1.580012
 H    5.870107   -0.719096    0.243450
 H    5.814858   -2.409141   -0.287287
 H    5.469390   -1.104028   -1.436279
