75 
5z89_ligand_xtb.xyz
 C   11.259763   -2.420058   -1.951443
 C    9.435521   -2.793727   -0.528483
 C    8.580176   -2.114111    0.534484
 C    6.872159   -0.521256    0.790862
 C    5.870530    0.301542   -0.029521
 C    4.258521    0.811962    1.639545
 C    3.319864    1.958525    2.003226
 C    1.499681    3.185779    1.175433
 C    0.423399    3.163022    0.095839
 C   -1.261038    4.549378   -0.825868
 C   -2.519865    3.695446   -0.629071
 C   -3.283352    1.481745   -1.089544
 C   -2.993011    0.226897   -1.618266
 C   -3.933809   -0.782044   -1.599031
 C   -5.197181   -0.589560   -1.046834
 C   -5.475083    0.673915   -0.538494
 C   -4.543594    1.697384   -0.548260
 C   -6.271530   -1.665714   -1.044180
 C   -5.774823   -2.995698   -1.615079
 C   -7.393959   -1.171945   -1.979860
 C   -6.908942   -1.854071    0.353268
 C   -6.104216   -2.425007    1.544071
 C   -6.862162   -2.018441    2.817632
 C   -6.046633   -3.956113    1.515276
 C   -4.685234   -1.864715    1.635360
 O   10.494846   -1.937129   -0.878858
 O    7.612565   -1.314578   -0.103449
 O    5.211432    1.291018    0.716229
 O    2.297335    2.035091    1.038818
 O   -0.294225    4.378166    0.177889
 O   -2.283420    2.409409   -1.156992
 H   11.710166   -3.392797   -1.713704
 H   10.652010   -2.527539   -2.858544
 H   12.046644   -1.689443   -2.126249
 H    8.805078   -3.006438   -1.403297
 H    9.833987   -3.745090   -0.140519
 H    9.232155   -1.497900    1.169192
 H    8.086762   -2.870956    1.164755
 H    6.347780   -1.160937    1.519393
 H    7.535337    0.160053    1.346048
 H    5.149321   -0.377648   -0.505235
 H    6.420345    0.832737   -0.809199
 H    3.666945    0.000750    1.195921
 H    4.753491    0.441039    2.548679
 H    3.900361    2.891138    2.024855
 H    2.884909    1.790327    3.001223
 H    1.027132    3.215990    2.168946
 H    2.107146    4.095579    1.060820
 H   -0.234758    2.299037    0.243539
 H    0.899661    3.065689   -0.889376
 H   -1.538848    5.605001   -0.776917
 H   -0.838490    4.327240   -1.815673
 H   -3.360574    4.170212   -1.153808
 H   -2.750782    3.640176    0.443144
 H   -2.015587    0.063394   -2.044448
 H   -3.658933   -1.732350   -2.026560
 H   -6.444861    0.887617   -0.114404
 H   -4.816820    2.655412   -0.133694
 H   -5.543900   -2.889841   -2.673358
 H   -4.886297   -3.351104   -1.102934
 H   -6.554162   -3.748053   -1.516032
 H   -7.858988   -0.267460   -1.597031
 H   -6.988743   -0.952906   -2.965591
 H   -8.163206   -1.934245   -2.085279
 H   -7.784123   -2.496175    0.220598
 H   -7.285580   -0.878542    0.663991
 H   -6.870764   -0.936617    2.932762
 H   -7.891588   -2.368748    2.780614
 H   -6.388091   -2.447896    3.697470
 H   -7.046450   -4.376395    1.427367
 H   -5.445841   -4.323937    0.691163
 H   -5.605755   -4.326037    2.439155
 H   -4.080929   -2.169910    0.786724
 H   -4.699036   -0.778368    1.667671
 H   -4.205488   -2.228676    2.542348
