75 
5z95_ligand_ani.xyz
 C   10.754541   -0.337469   -1.752478
 C    9.501432   -1.944379   -0.576083
 C    8.372541   -1.104903    0.011781
 C    6.202687   -1.412658    0.907358
 C    5.325591   -0.484388    0.054111
 C    3.158438   -0.784759    0.962690
 C    2.005984   -0.004095    1.574123
 C    2.105415    1.989590    0.295728
 C    1.164105    3.087300   -0.136544
 C   -0.602748    4.408245    0.713158
 C   -1.922659    3.658526    0.678047
 C   -2.975620    1.933651   -0.585979
 C   -4.144694    1.977077    0.168493
 C   -5.157365    1.050966   -0.069029
 C   -5.026399    0.031732   -1.016869
 C   -3.848088    0.024041   -1.772392
 C   -2.839223    0.951978   -1.568167
 C   -6.162275   -0.976491   -1.233454
 C   -5.764229   -2.095442   -2.206295
 C   -7.348735   -0.219293   -1.873053
 C   -6.700287   -1.566157    0.099911
 C   -5.856461   -2.471642    1.029326
 C   -4.492048   -1.875621    1.399858
 C   -5.660863   -3.879686    0.446416
 C   -6.677768   -2.624519    2.324693
 O   10.718309   -1.239877   -0.675361
 O    7.268172   -1.966684    0.168133
 O    4.271021    0.071985    0.811654
 O    1.345863    0.861745    0.680372
 O    0.497902    3.579008    1.008000
 O   -1.934329    2.804357   -0.454455
 H   10.514943   -0.839817   -2.702574
 H   10.061298    0.506343   -1.621657
 H   11.772106    0.057167   -1.808839
 H    9.189651   -2.337138   -1.556326
 H    9.684366   -2.798545    0.082604
 H    8.130752   -0.259302   -0.652226
 H    8.687323   -0.687897    0.982422
 H    5.608480   -2.257039    1.272846
 H    6.574126   -0.860288    1.785266
 H    4.938370   -1.034704   -0.817768
 H    5.914847    0.359983   -0.319137
 H    2.845585   -1.189994   -0.013392
 H    3.406740   -1.631018    1.622169
 H    2.380402    0.551395    2.449185
 H    1.241116   -0.707009    1.922416
 H    2.711688    2.352107    1.138032
 H    2.786762    1.731057   -0.527780
 H    0.447986    2.688070   -0.864894
 H    1.734524    3.898915   -0.619375
 H   -0.655921    5.159606    1.509653
 H   -0.460332    4.935014   -0.243594
 H   -2.750547    4.378268    0.607720
 H   -2.041719    3.072040    1.599232
 H   -4.287587    2.729379    0.937241
 H   -6.065228    1.142548    0.527496
 H   -3.702351   -0.722508   -2.548251
 H   -1.931155    0.923363   -2.162954
 H   -5.683091   -1.710566   -3.228902
 H   -4.803605   -2.551818   -1.946352
 H   -6.525004   -2.883291   -2.215158
 H   -7.703162    0.597513   -1.233942
 H   -7.063139    0.215210   -2.837812
 H   -8.189108   -0.901256   -2.050224
 H   -7.605537   -2.136822   -0.155786
 H   -7.056470   -0.723962    0.706795
 H   -3.818966   -1.803598    0.539318
 H   -4.596570   -0.870650    1.827413
 H   -4.001511   -2.509005    2.148267
 H   -6.618985   -4.321466    0.143632
 H   -4.990865   -3.898111   -0.417560
 H   -5.219235   -4.540110    1.202976
 H   -6.831664   -1.656298    2.816959
 H   -7.664899   -3.059958    2.123176
 H   -6.167543   -3.279707    3.040836
