61 
5za1_ligand_dft.xyz
 C   -2.774487   -2.191447   -2.620886
 C   -1.290191   -2.194151   -2.220244
 C    0.208913   -1.612833   -0.303275
 C    1.418842   -2.054344   -0.850495
 O    6.187124   -0.796214    1.166419
 C    5.007578   -0.497877    1.096296
 N    4.524229    0.558274    0.370964
 C    5.226053    1.479436   -0.429536
 C    4.463519    2.405487   -1.150460
 C    5.082546    3.352170   -1.954942
 C    6.470833    3.389092   -2.053501
 C    7.225436    2.466346   -1.336684
 C    6.620574    1.511253   -0.524826
 C    3.932681   -1.250117    1.922605
 C    4.454416   -2.663002    2.229817
 C    3.811505   -0.470108    3.245748
 C    2.609171   -1.347754    1.164506
 C    2.586960   -1.917353   -0.114999
 C    1.392769   -0.908119    1.688072
 C    0.210534   -1.038786    0.968603
 N   -1.027690   -1.711149   -0.967138
 O   -0.452488   -2.635245   -2.983928
 C   -3.678482   -1.284120   -1.826706
 C   -3.782942    0.071961   -2.156886
 C   -4.564146    0.931116   -1.395886
 C   -4.381773   -1.766914   -0.718769
 C   -5.163281   -0.915913    0.056705
 C   -5.239392    0.429090   -0.286171
 S   -6.210050    1.539913    0.725588
 O   -7.116072    0.725071    1.531508
 O   -6.710088    2.608645   -0.134027
 C   -4.989141    2.275494    1.832029
 C   -4.341119    1.270333    2.772301
 H   -3.112179   -3.231645   -2.548582
 H   -2.790747   -1.933058   -3.682971
 H    1.432560   -2.493729   -1.837904
 H    3.517904    0.645507    0.345730
 H    3.378066    2.380439   -1.081166
 H    4.474544    4.062193   -2.507724
 H    6.957112    4.127814   -2.682786
 H    8.309257    2.482868   -1.405393
 H    7.209908    0.792751    0.026844
 H    5.411468   -2.607871    2.752849
 H    3.728968   -3.193099    2.855086
 H    4.606879   -3.242209    1.315030
 H    3.151429   -0.993074    3.945842
 H    4.798535   -0.390877    3.710139
 H    3.427352    0.543980    3.092585
 H    3.517437   -2.258177   -0.562584
 H    1.348258   -0.456971    2.673522
 H   -0.722062   -0.688654    1.406478
 H   -1.821790   -1.360995   -0.450114
 H   -3.248994    0.453895   -3.022660
 H   -4.667979    1.977464   -1.665213
 H   -4.321040   -2.821606   -0.463202
 H   -5.724352   -1.285742    0.908656
 H   -5.559969    3.035068    2.375889
 H   -4.264542    2.787536    1.192335
 H   -5.099565    0.754365    3.366239
 H   -3.762512    0.522947    2.220048
 H   -3.660979    1.790710    3.452572
