61 
5za1_ligand_ani.xyz
 C   -2.742014   -3.301790   -0.396084
 C   -1.340083   -2.822886   -0.766178
 C    0.941893   -2.546642    0.220823
 C    1.575316   -2.037063   -0.914519
 O    6.420457    0.317257   -0.691436
 C    5.381037    0.010919   -0.134053
 N    4.406362    0.915141    0.211786
 C    4.393961    2.307843   -0.014053
 C    3.164483    2.966829    0.093467
 C    3.082650    4.340306   -0.097251
 C    4.227581    5.075056   -0.389066
 C    5.448694    4.416324   -0.489423
 C    5.546172    3.040476   -0.306419
 C    5.145367   -1.452333    0.312249
 C    5.895164   -2.376113   -0.659029
 C    5.819563   -1.559248    1.693022
 C    3.667060   -1.827202    0.324547
 C    2.918434   -1.691598   -0.848465
 C    3.018409   -2.340763    1.447801
 C    1.678024   -2.695661    1.400426
 N   -0.413295   -2.925647    0.241479
 O   -1.105304   -2.373514   -1.871071
 C   -3.686374   -2.134365   -0.216394
 C   -4.640526   -1.834279   -1.189346
 C   -5.499654   -0.752658   -1.039780
 C   -3.597923   -1.323854    0.917576
 C   -4.446777   -0.239669    1.081161
 C   -5.387544    0.040516    0.095168
 S   -6.462684    1.443835    0.291806
 O   -6.594367    1.711951    1.721885
 O   -7.636073    1.230197   -0.549400
 C   -5.555148    2.818811   -0.429321
 C   -4.244975    3.126571    0.277745
 H   -2.712659   -3.928343    0.503099
 H   -3.087288   -3.928976   -1.222994
 H    1.017319   -1.914893   -1.831840
 H    3.543510    0.537497    0.575359
 H    2.264396    2.399011    0.320756
 H    2.118839    4.836036   -0.013933
 H    4.170446    6.149825   -0.537052
 H    6.350671    4.978941   -0.719322
 H    6.500174    2.536693   -0.396136
 H    6.942717   -2.075851   -0.720058
 H    5.839566   -3.410279   -0.304838
 H    5.468026   -2.337829   -1.666114
 H    5.782909   -2.587836    2.068261
 H    6.870939   -1.271416    1.600193
 H    5.349186   -0.897044    2.428407
 H    3.389616   -1.279152   -1.740574
 H    3.559820   -2.470061    2.380780
 H    1.201060   -3.091583    2.294265
 H   -0.722108   -3.335624    1.109240
 H   -4.711798   -2.460121   -2.076608
 H   -6.260697   -0.527645   -1.782096
 H   -2.856055   -1.543655    1.681230
 H   -4.390261    0.390603    1.964569
 H   -6.264728    3.649357   -0.348262
 H   -5.421165    2.586230   -1.490303
 H   -4.416744    3.276608    1.346703
 H   -3.516042    2.319339    0.149704
 H   -3.812632    4.040077   -0.141636
