61 
5za1_ligand_xtb.xyz
 C   -2.877996   -3.465654   -1.293595
 C   -1.383399   -3.159755   -1.452767
 C    0.540001   -2.602433    0.028723
 C    1.467438   -2.295305   -0.962698
 O    5.821015    0.322368   -0.297834
 C    4.767282    0.080494    0.241289
 N    3.698617    0.924857    0.280880
 C    3.533567    2.176196   -0.319039
 C    2.269889    2.760762   -0.250747
 C    2.041955    3.998006   -0.820631
 C    3.069528    4.667115   -1.464730
 C    4.324865    4.087421   -1.532908
 C    4.565358    2.849336   -0.965124
 C    4.504915   -1.219789    1.031248
 C    5.533579   -2.275693    0.612184
 C    4.727418   -0.862831    2.506943
 C    3.110358   -1.722861    0.725838
 C    2.728154   -1.861219   -0.608174
 C    2.180922   -2.048146    1.706101
 C    0.913199   -2.480003    1.363498
 N   -0.767901   -3.014379   -0.248251
 O   -0.856647   -3.023836   -2.529945
 C   -3.524400   -2.200822   -0.807549
 C   -3.764724   -1.164829   -1.707262
 C   -4.268563    0.044118   -1.264717
 C   -3.810575   -2.011877    0.541099
 C   -4.308434   -0.800100    0.988407
 C   -4.522588    0.219228    0.082738
 S   -5.107750    1.815168    0.665219
 O   -5.421716    1.700116    2.064622
 O   -6.134424    2.287509   -0.224015
 C   -3.650106    2.901917    0.487211
 C   -2.512967    2.337663    1.305984
 H   -3.025446   -4.285416   -0.590034
 H   -3.265418   -3.750843   -2.271030
 H    1.194090   -2.391480   -1.999550
 H    2.866881    0.567404    0.733417
 H    1.466798    2.235567    0.249995
 H    1.058315    4.440843   -0.762887
 H    2.890772    5.633773   -1.910531
 H    5.130173    4.603719   -2.033557
 H    5.541510    2.398382   -1.021572
 H    6.537254   -1.876786    0.732866
 H    5.424515   -3.167491    1.224972
 H    5.401521   -2.550568   -0.430604
 H    4.676132   -1.753832    3.128725
 H    5.717986   -0.427950    2.623125
 H    3.994974   -0.138728    2.859119
 H    3.432042   -1.610228   -1.388180
 H    2.432045   -1.967395    2.751546
 H    0.203007   -2.720986    2.142847
 H   -1.338695   -3.158182    0.573811
 H   -3.544662   -1.312398   -2.753606
 H   -4.477492    0.849749   -1.950740
 H   -3.658420   -2.817590    1.246090
 H   -4.540154   -0.626871    2.027464
 H   -3.970790    3.876490    0.845850
 H   -3.428566    2.955339   -0.574598
 H   -2.857505    2.168980    2.323780
 H   -2.175244    1.389601    0.890606
 H   -1.670514    3.025975    1.330213
