40 
5zbz_ligand_xtb.xyz
 N    0.180939   -1.310224    0.053094
 C   -6.173439   -1.071865   -0.040958
 O   -4.962057   -1.790370   -0.016269
 C   -4.539668    0.434415    0.008241
 O   -5.902091    0.311256   -0.024989
 C   -3.961049   -0.855267    0.009005
 O    5.883066    0.027808   -0.229246
 C   -3.779485    1.557800    0.060449
 O    4.477423   -1.663213    0.463387
 C   -2.370325    1.404024    0.094853
 C   -1.788003    0.108554    0.059719
 C   -2.617534   -1.043481    0.037493
 C   -1.524930    2.526466    0.194143
 C   -0.167456    2.386039    0.228699
 C   -0.376458   -0.012844    0.078508
 C    1.421181   -1.385484    0.804470
 C    2.393684   -0.328478    0.371627
 C    1.885075    0.946220    0.054469
 C    0.434851    1.116906    0.144087
 C    2.742755    1.947898   -0.389695
 C    4.112730    1.742640   -0.513410
 C    4.594783    0.496358   -0.193069
 C    3.743933   -0.524546    0.229742
 C    5.814867   -1.322625    0.171910
 C    0.257199   -1.906046   -1.268426
 H   -6.778697   -1.338595    0.840476
 H   -6.735249   -1.326372   -0.954390
 H   -4.222092    2.539771    0.079867
 H   -2.183118   -2.027004    0.066765
 H   -1.972832    3.507609    0.248882
 H    0.458454    3.259752    0.324986
 H    1.856491   -2.378669    0.685925
 H    1.169515   -1.241824    1.863501
 H    2.342241    2.909045   -0.668853
 H    4.772013    2.523221   -0.853306
 H    6.437097   -1.472582    1.068907
 H    6.190682   -1.967345   -0.639658
 H    0.442938   -2.975540   -1.164641
 H   -0.688342   -1.757644   -1.785151
 H    1.057332   -1.466193   -1.879181
