57 
5zdp_ligand_ani.xyz
 O   -4.393849   -1.990639    1.933859
 C   -4.374740   -1.066304    1.156663
 O   -4.865535    0.142437    1.593516
 C   -4.919338    1.248399    0.796097
 C   -4.495238    1.217311   -0.536872
 C   -4.593098    2.410332   -1.288124
 C   -5.092823    3.562952   -0.718976
 C   -5.511991    3.561994    0.618702
 C   -5.426459    2.407448    1.377362
 C   -3.989652   -0.041355   -1.024628
 O   -3.600844   -0.190686   -2.313701
 C   -3.882352   -1.132652   -0.215137
 C   -3.305175   -2.433982   -0.722555
 C   -1.803842   -2.432558   -0.957728
 C   -0.858285   -2.481076   -0.015607
 C   -1.147648   -2.529374    1.462932
 C    0.602723   -2.446041   -0.398862
 C    1.333933   -1.179181    0.077625
 C    2.807379   -1.214029   -0.214679
 C    3.581294   -0.236522   -0.695352
 C    3.078566    1.128487   -1.086553
 C    5.066808   -0.441369   -0.861685
 C    5.918553    0.526110   -0.027917
 C    7.399591    0.293105   -0.183273
 C    8.358467    0.953622    0.470053
 C    9.818902    0.649437    0.255492
 C    8.071693    2.045740    1.466541
 H   -4.269177    2.437227   -2.327476
 H   -5.161962    4.472797   -1.309543
 H   -5.906206    4.470989    1.064043
 H   -5.743573    2.374729    2.414947
 H   -3.735895    0.627896   -2.806705
 H   -3.793893   -2.693543   -1.667658
 H   -3.578154   -3.211443   -0.000434
 H   -1.477115   -2.355214   -1.997542
 H   -2.159663   -2.875518    1.681297
 H   -0.436659   -3.191610    1.970667
 H   -1.034585   -1.535442    1.916405
 H    0.703027   -2.545595   -1.488194
 H    1.104354   -3.316557    0.046271
 H    1.196182   -1.091172    1.164880
 H    0.858043   -0.296156   -0.364092
 H    3.294344   -2.160190    0.039430
 H    1.997647    1.150980   -1.249384
 H    3.312327    1.872112   -0.314160
 H    3.562793    1.462109   -2.011862
 H    5.332645   -0.302561   -1.920282
 H    5.333105   -1.474723   -0.599179
 H    5.628618    0.437631    1.030915
 H    5.675657    1.562604   -0.310075
 H    7.705371   -0.478921   -0.896270
 H    9.965137   -0.146455   -0.482205
 H   10.357182    1.541487   -0.088875
 H   10.294277    0.339445    1.194747
 H    8.528389    2.991333    1.148134
 H    7.001179    2.219190    1.606929
 H    8.504836    1.802720    2.444759
