59 
5ze6_ligand_ani.xyz
 C  -10.346957    1.851577    1.546082
 O    6.180669   -0.224210    2.322481
 O    6.762364    1.881382    1.980311
 O    7.209557    2.270867   -0.591522
 C    4.692566    0.377612   -2.443344
 C    5.742837    1.246658   -2.192545
 C    4.068311   -0.307154   -1.407965
 C   -9.331687    2.006663    0.416220
 C   -8.073491    1.166926    0.631509
 C   -7.045609    1.314296   -0.488059
 C   -5.793683    0.468702   -0.265652
 C   -4.763491    0.606382   -1.386810
 C   -3.515227   -0.263260   -1.188196
 C   -3.800899   -1.779884   -1.261832
 C   -3.402761   -2.581608   -0.013590
 C   -1.920842   -2.959217    0.087489
 C   -0.928664   -1.803716    0.221823
 C    0.502023   -2.297697    0.432852
 C    1.525683   -1.173457    0.576037
 C    2.939561   -1.710156    0.786343
 O    3.893961   -0.675038    0.975537
 C    6.207627    0.721320    1.579934
 C    6.184876    1.406625   -0.884065
 C    4.512783   -0.128631   -0.095908
 C    5.623232    0.693088    0.183729
 H  -10.671082    0.808577    1.642435
 H   -9.913568    2.152944    2.507093
 H  -11.237508    2.464664    1.373071
 H    6.902627    2.475166    1.225273
 H    7.480294    2.741814   -1.389410
 H    4.345074    0.234940   -3.462218
 H    6.218696    1.795381   -3.002443
 H    3.237871   -0.967550   -1.625454
 H   -9.046712    3.063321    0.317820
 H   -9.795271    1.722637   -0.538761
 H   -8.357385    0.108325    0.727865
 H   -7.610820    1.445758    1.590133
 H   -6.761236    2.372853   -0.585597
 H   -7.509140    1.034565   -1.446059
 H   -6.087605   -0.585236   -0.157594
 H   -5.329364    0.752687    0.690721
 H   -4.464348    1.660457   -1.466197
 H   -5.235030    0.348962   -2.347098
 H   -3.072857   -0.019429   -0.210230
 H   -2.764284    0.019170   -1.937302
 H   -3.307848   -2.215853   -2.140279
 H   -4.874356   -1.924440   -1.437726
 H   -3.988742   -3.509475    0.011804
 H   -3.699345   -2.015327    0.883039
 H   -1.645353   -3.556835   -0.794760
 H   -1.795013   -3.624915    0.952913
 H   -1.217262   -1.164171    1.070324
 H   -0.958410   -1.167928   -0.673943
 H    0.787163   -2.944775   -0.410759
 H    0.537909   -2.935217    1.329530
 H    1.271786   -0.536067    1.432558
 H    1.499184   -0.523040   -0.308031
 H    3.252889   -2.373252   -0.032773
 H    2.979509   -2.293121    1.713283
