30 
5zee_ligand_dft.xyz
 N   -4.159687    0.194538   -0.245187
 C   -2.656510    0.275342   -0.413144
 C   -2.008725   -1.045266    0.022386
 O   -0.804527   -1.165987    0.116786
 C   -2.115690    1.519333    0.323981
 C   -0.706786    1.983962   -0.105334
 C    0.417619    1.176006    0.445583
 N    1.445317    0.876589   -0.265786
 C    2.399665    0.020733    0.310280
 N    3.766249    0.504226   -0.147605
 N    2.193000   -1.362095   -0.262219
 O    4.662711   -0.546462    0.023677
 O   -2.904110   -1.981165    0.243110
 H   -4.550116   -0.654448   -0.677591
 H   -4.446416    0.174318    0.742900
 H   -4.627170    1.001413   -0.680236
 H   -2.488333    0.373807   -1.492002
 H   -2.158376    1.361277    1.408436
 H   -2.790922    2.353197    0.104715
 H   -0.610299    2.070115   -1.191472
 H   -0.576779    2.998341    0.302283
 H    0.341025    0.875591    1.498910
 H    2.454164   -0.086357    1.401964
 H    4.026463    1.324246    0.427644
 H    3.711328    0.813847   -1.135207
 H    1.230322   -1.656370   -0.005660
 H    2.871433   -2.056638    0.086153
 H    2.223124   -1.360266   -1.292371
 H    5.575612   -0.219292   -0.123102
 H   -2.509236   -2.837337    0.499122
