30 
5zee_ligand_xtb.xyz
 N   -4.100414    0.107945   -0.389856
 C   -2.618320    0.254762   -0.477810
 C   -1.922156   -1.030316    0.012398
 O   -0.716413   -1.148542    0.024326
 C   -2.164741    1.501860    0.312564
 C   -0.747280    1.973466   -0.040772
 C    0.328714    1.141128    0.523453
 N    1.399873    0.910427   -0.126127
 C    2.387832    0.035508    0.370749
 N    3.727800    0.523123   -0.157507
 N    2.128020   -1.322856   -0.206383
 O    4.611280   -0.548680   -0.154056
 O   -2.784216   -1.926644    0.395159
 H   -4.429094   -0.751342   -0.860789
 H   -4.418519    0.049373    0.591327
 H   -4.580983    0.909748   -0.828291
 H   -2.347041    0.384501   -1.533854
 H   -2.237278    1.316289    1.386206
 H   -2.844479    2.319678    0.067804
 H   -0.611994    2.093678   -1.116011
 H   -0.618134    2.968644    0.406948
 H    0.180337    0.767659    1.541396
 H    2.478400   -0.070841    1.470876
 H    4.059272    1.310243    0.434848
 H    3.582375    0.909729   -1.117306
 H    1.113881   -1.544589   -0.040857
 H    2.731710   -2.058002    0.199467
 H    2.259049   -1.336111   -1.231420
 H    5.550994   -0.288903   -0.249616
 H   -2.424956   -2.777735    0.711459
