20 
5zef_ligand_ani.xyz
 N    0.869469    1.832730   -0.089611
 C    0.578541    0.583479    0.704933
 C   -0.919250    0.278698    0.817385
 C   -1.614490   -0.024966   -0.508954
 C   -3.080974   -0.402050   -0.317986
 C    1.353472   -0.510022   -0.025410
 O    1.191064   -1.731699    0.492588
 O    2.045674   -0.273153   -0.989979
 H    1.327865    2.560138    0.483502
 H    1.507346    1.508601   -0.848728
 H    0.003399    2.214255   -0.499837
 H    1.009828    0.681943    1.700144
 H   -1.408024    1.126045    1.315484
 H   -1.030293   -0.582473    1.482373
 H   -1.085112   -0.844985   -1.009491
 H   -1.550143    0.837751   -1.185063
 H   -3.561573   -0.619871   -1.277066
 H   -3.642258    0.409113    0.160409
 H   -3.177648   -1.292082    0.314023
 H    1.722636   -2.339573   -0.049155
