66 
5zfi_ligand_xtb.xyz
 C   -1.636481   -0.090761   -0.792912
 O   -0.658955   -0.044479   -1.528084
Cl   -1.478892   -2.503873    2.717910
 C   -0.001537   -2.074944    1.917790
 C    1.062707   -1.694954    2.717562
 C    2.281407   -1.406811    2.132241
 C    2.431326   -1.529243    0.765234
 C    1.347744   -1.896059   -0.018585
Cl    1.616168   -2.049116   -1.712279
 C    0.090415   -2.156019    0.527777
 C   -1.106838   -2.500326   -0.314536
 C   -2.175835   -1.398040   -0.238749
 C   -3.421516   -1.771770   -1.045311
 N   -4.594867   -1.016446   -0.659375
 C   -4.677288    0.279073   -0.229133
 N   -5.760890    0.950250   -0.222086
 N   -6.919863    0.310463   -0.764795
 C   -7.568276   -0.529250    0.229414
 C   -7.816294    1.350437   -1.236795
 C   -3.492370    0.973523    0.398600
 N   -2.331087    1.012700   -0.462715
 C   -1.908691    2.296916   -0.998908
 C   -0.758333    2.881805   -0.153837
 O   -0.929989    3.789896    0.629016
 N    0.402738    2.238673   -0.403772
 C    1.655728    2.391933    0.195003
 C    2.667535    1.556718   -0.264530
 C    3.947824    1.617564    0.273155
 C    4.202641    2.540315    1.287747
 C    3.196807    3.374357    1.737713
 C    1.921511    3.312412    1.202964
 C    4.986941    0.724141   -0.214172
 C    6.194871    0.356611    0.415520
 N    6.874390   -0.500773   -0.317866
 N    6.152287   -0.704917   -1.414964
 C    6.621685   -1.580956   -2.448353
 C    5.009668    0.004384   -1.400259
 H    0.933921   -1.634750    3.786660
 H    3.117805   -1.102377    2.740505
 H    3.385813   -1.341261    0.301495
 H   -0.800725   -2.631439   -1.351916
 H   -1.544219   -3.434187    0.046512
 H   -2.466206   -1.272005    0.804270
 H   -3.655200   -2.829746   -0.876736
 H   -3.207087   -1.644812   -2.117937
 H   -5.428512   -1.267594   -1.180768
 H   -6.852441   -1.244214    0.632078
 H   -8.379709   -1.070623   -0.256882
 H   -7.980824    0.056632    1.062265
 H   -8.176925    1.993992   -0.425052
 H   -7.280562    1.963104   -1.958665
 H   -8.666217    0.877381   -1.726550
 H   -3.248347    0.496601    1.355144
 H   -3.804783    1.994690    0.616757
 H   -1.569510    2.151384   -2.028985
 H   -2.752230    2.986092   -0.984184
 H    0.344010    1.459022   -1.059602
 H    2.440838    0.846993   -1.046010
 H    5.192408    2.609965    1.711745
 H    3.406205    4.089380    2.519810
 H    1.139596    3.963592    1.555458
 H    6.576872    0.666758    1.367133
 H    7.479765   -2.124926   -2.059014
 H    5.838916   -2.284695   -2.734740
 H    6.928177   -1.012262   -3.329503
 H    4.315974   -0.039237   -2.215302
