41 
5zh2_ligand_ani.xyz
 C   -3.802952    0.411047    2.761893
 C   -0.243487   -0.683102   -0.454365
 C    0.955713   -1.564301   -0.763240
 C    2.259259    0.498454   -0.295749
 C    4.534725    0.421483    0.543726
 C   -5.185448    0.110181   -0.847931
 C   -4.027118   -0.757797   -1.337449
 C    1.099547    1.285156   -0.749363
 C    2.212530   -0.903857   -0.268400
 C    3.300829   -1.636289    0.172639
 C   -3.855586    0.485395    1.246297
 C    4.457393   -0.964466    0.582208
 C   -1.542691   -1.199311   -1.049699
 C    3.440844    1.165214    0.092642
 C   -5.221886    0.107163    0.679130
 O   -2.864835   -0.397834    0.744575
 C   -2.725857   -0.323016   -0.667557
 O   -0.031769    0.623751   -1.025599
 O    1.125160    2.493968   -0.915317
 O    5.498365   -1.723586    1.011763
 O    3.564524    2.493183    0.053858
 H   -4.533350    1.093320    3.211071
 H   -2.806510    0.679459    3.124505
 H   -4.029354   -0.607576    3.093937
 H   -0.352060   -0.567629    0.632357
 H    0.827763   -2.547140   -0.300351
 H    1.023918   -1.708821   -1.848623
 H    5.431243    0.953752    0.850040
 H   -5.042633    1.140735   -1.204250
 H   -6.137402   -0.240138   -1.261427
 H   -4.214103   -1.809583   -1.083054
 H   -3.916885   -0.694477   -2.427532
 H    3.281080   -2.720394    0.206022
 H   -3.607432    1.511207    0.917458
 H   -1.725323   -2.220268   -0.692926
 H   -1.452759   -1.236108   -2.143414
 H   -5.980703    0.801841    1.061374
 H   -5.480063   -0.896258    1.043633
 H   -2.509337    0.721774   -0.947926
 H    6.227637   -1.142715    1.262255
 H    2.729825    2.861438   -0.316097
