41 
5zh4_ligand_xtb.xyz
 C    3.472788   -0.107278    0.497150
 C    1.956359   -1.951951   -0.197800
 C    1.805117    1.752057   -0.771215
 C    2.942951    2.176692   -0.078036
 C   -0.263117   -1.313612   -0.810181
 C    0.311964   -0.120256   -1.567729
 C    3.766440    1.254381    0.545461
 C    1.493750    0.413287   -0.816449
 C    2.305908   -0.529193   -0.170430
 C   -0.862995   -0.937743    0.551341
 C   -2.123003   -0.078384    0.432154
 C   -4.256353   -0.101387   -0.644862
 C   -4.969187    0.207903    0.679250
 C   -4.049060    0.955643    1.641409
 O    0.739685   -2.312005   -0.615994
 C   -2.753366    0.166149    1.806930
 C   -4.113458    1.138791   -1.533997
 O   -3.019186   -0.760224   -0.426325
 O    2.735415   -2.826310    0.148687
 O    3.204454    3.502823   -0.048637
 O    4.305198   -0.961802    1.093168
 H    1.192214    2.487919   -1.265412
 H   -1.037725   -1.810850   -1.401209
 H    0.639586   -0.454206   -2.557666
 H   -0.450320    0.643295   -1.708377
 H    4.658079    1.567182    1.068768
 H   -0.122906   -0.404136    1.150857
 H   -1.120559   -1.867757    1.061035
 H   -1.856053    0.896943   -0.005246
 H   -4.840596   -0.847001   -1.198363
 H   -5.265353   -0.736500    1.140285
 H   -5.870145    0.787878    0.477019
 H   -3.825692    1.952181    1.254829
 H   -4.542517    1.077905    2.607221
 H   -2.971220   -0.797853    2.270602
 H   -2.048192    0.705712    2.440313
 H   -3.526229    0.889175   -2.414701
 H   -5.097711    1.470298   -1.852822
 H   -3.627849    1.957814   -1.010870
 H    4.016069    3.669725    0.447103
 H    3.984172   -1.878164    0.911461
