41 
5zh5_ligand_dft.xyz
 C    1.526984    1.986773   -0.174345
 C    1.559558   -0.430732   -0.820876
 C    0.275313   -0.147403   -1.548494
 C    4.004746   -0.772628    0.489139
 C    2.142820   -1.679228   -0.789374
 C   -2.660456   -1.109742    1.804700
 C   -3.862074   -0.179110    1.989601
 C   -4.730911   -0.199167    0.730331
 C   -3.887800    0.109673   -0.505919
 C   -4.664716    0.001321   -1.804995
 O   -2.800208   -0.803609   -0.611314
 C   -1.911869   -0.816438    0.499754
 C   -1.057239    0.456743    0.571354
 C   -0.527286    0.902327   -0.792702
 O    0.265408    2.097492   -0.614792
 O    2.091645    3.000798    0.216544
 C    2.168867    0.667609   -0.183643
 C    3.369175   -1.843416   -0.125048
 O    3.893796   -3.089557   -0.121837
 C    3.416215    0.494649    0.456617
 O    4.064795    1.499689    1.045322
 H   -0.327228   -1.047662   -1.690307
 H    0.504691    0.245470   -2.547176
 H    4.960951   -0.887507    0.991189
 H    1.683182   -2.534696   -1.272444
 H   -1.967499   -1.034570    2.650673
 H   -3.015962   -2.146453    1.765277
 H   -4.443567   -0.485095    2.865765
 H   -3.523243    0.847070    2.183319
 H   -5.182619   -1.192101    0.602878
 H   -5.547566    0.528072    0.807405
 H   -3.494574    1.136624   -0.409305
 H   -4.014475    0.218328   -2.657649
 H   -5.499183    0.709605   -1.812658
 H   -5.062765   -1.011506   -1.924497
 H   -1.240699   -1.656495    0.289745
 H   -0.218007    0.260215    1.248919
 H   -1.613139    1.296817    1.001157
 H   -1.360493    1.233375   -1.414416
 H    4.733017   -3.082971    0.355171
 H    3.537716    2.317583    0.878975
