46 
5zjf_ligand_ani.xyz
 O    5.429302   -0.177291    0.020712
 O   -2.693071   -2.692391   -1.003257
 O    4.637428   -2.330320    0.307101
 O   -4.055112   -2.764841    0.851916
 C   -0.066310    2.049008    0.471138
 C   -1.239279    2.978954    0.085296
 C    0.861184    1.723727   -0.718325
 C   -2.258233    2.299083   -0.856677
 C    0.732294    2.608907    1.651424
 C   -0.780110    4.307227   -0.525038
 C    1.841557    0.604943   -0.439461
 C   -2.783196    0.960800   -0.379643
 C    3.222323    0.870278   -0.354965
 C   -2.425297   -0.229558   -1.046317
 C    1.378087   -0.699675   -0.261435
 C   -3.604373    0.894216    0.745965
 C    4.065434   -0.187689   -0.101123
 C   -2.920048   -1.416214   -0.554760
 C    3.590925   -1.478561    0.070638
 C   -3.740802   -1.461707    0.564594
 C    2.248501   -1.768905   -0.004060
 C   -4.099720   -0.320348    1.241609
 C    5.812903   -1.524459    0.286766
 C   -3.591151   -3.514931   -0.265908
 H   -0.514437    1.102940    0.808379
 H   -1.769342    3.208650    1.022570
 H    1.415762    2.625993   -1.005772
 H    0.250095    1.443978   -1.587829
 H   -1.809312    2.175534   -1.850028
 H   -3.100070    2.993331   -0.988144
 H    1.510972    1.904886    1.963205
 H    0.081904    2.792792    2.514094
 H    1.224383    3.554301    1.392130
 H   -1.640034    4.955162   -0.732778
 H   -0.107533    4.859704    0.140999
 H   -0.257543    4.149209   -1.476129
 H    3.610706    1.876643   -0.480883
 H   -1.780752   -0.216608   -1.920344
 H    0.307417   -0.901776   -0.327907
 H   -3.872024    1.815616    1.261966
 H    1.887625   -2.783047    0.135201
 H   -4.736462   -0.363902    2.119613
 H    6.482392   -1.875993   -0.506461
 H    6.307739   -1.576348    1.263423
 H   -3.063220   -4.403776    0.087567
 H   -4.444763   -3.789112   -0.902965
