42 
5zku_ligand_xtb.xyz
 C   28.115076   -0.077188   31.876060
 C   29.267479    0.658318   31.159569
 C   27.143287   -0.466793   30.734870
 C   26.833742    2.549771   34.127895
 C   28.617945    2.657402   32.271606
 C   27.921792   -0.128259   29.455233
 O   29.061934    2.058946   31.080201
 C   30.648683    0.335962   31.766356
 O   30.914361   -1.034282   31.708434
 O   29.263559    0.154130   29.857439
 C   27.332281    1.072151   28.700371
 O   28.157347    1.450875   27.634501
 O   26.830673   -1.834624   30.730529
 O   27.527426    0.620704   32.954293
 C   27.326334    2.004714   32.764332
 O   26.304147    2.256385   31.833190
 C   25.054277    2.271798   32.506186
 C   24.072608    3.092033   31.666728
 O   24.541656    4.394275   31.459423
 C   25.342302    2.886692   33.883185
 O   24.465055    2.328128   34.822116
 O   27.606748    3.657196   34.506702
 H   28.521514   -0.995002   32.319250
 H   26.231059    0.138546   30.801371
 H   26.910583    1.732858   34.858177
 H   29.370837    2.586919   33.064630
 H   28.437636    3.704897   32.033561
 H   27.977970   -1.000943   28.798221
 H   31.398608    0.919854   31.215892
 H   30.669602    0.619098   32.820198
 H   30.784176   -1.319530   30.793894
 H   27.199256    1.903828   29.406166
 H   26.365416    0.798188   28.273180
 H   29.049392    1.550402   27.992782
 H   26.379729   -2.058823   31.552755
 H   24.675959    1.251410   32.657508
 H   23.124069    3.174702   32.200097
 H   23.908573    2.576627   30.710857
 H   25.420530    4.324833   31.064677
 H   25.233305    3.979197   33.818218
 H   24.500132    2.828954   35.644220
 H   27.348940    3.935651   35.393129
