42 
5zku_ligand_ani.xyz
 C    1.319072    0.643851    1.188921
 C    1.869714    0.838348   -0.231483
 C    1.583629   -0.847159    1.501242
 C   -2.288807    1.310765    0.597218
 C   -0.381995    1.063374   -1.020656
 C    2.628475   -1.267924    0.461569
 O    0.919930    0.536555   -1.233577
 C    2.494892    2.211778   -0.462563
 O    3.178079    2.257127   -1.681849
 O    2.895965   -0.118454   -0.355201
 C    2.204920   -2.443040   -0.428218
 O    1.050305   -2.161822   -1.191697
 O    2.115227   -1.045866    2.796427
 O   -0.009201    1.097118    1.368922
 C   -0.909756    0.689221    0.369743
 O   -1.148306   -0.704493    0.497037
 C   -2.528216   -1.039839    0.326330
 C   -2.622523   -2.117740   -0.747929
 O   -1.826316   -1.807940   -1.869868
 C   -3.229260    0.280531   -0.009200
 O   -4.515615    0.428027    0.551756
 O   -2.397765    2.582987    0.008897
 H    1.935663    1.228650    1.881807
 H    0.667977   -1.425127    1.365881
 H   -2.453666    1.345448    1.683654
 H   -1.017251    0.628262   -1.800314
 H   -0.377584    2.153515   -1.128275
 H    3.560763   -1.520482    0.978969
 H    3.159127    2.437602    0.389348
 H    1.713195    2.977475   -0.494174
 H    3.751702    1.477378   -1.700382
 H    3.053219   -2.709486   -1.076494
 H    1.992099   -3.307827    0.217697
 H    1.177501   -1.270035   -1.566100
 H    1.388007   -0.992678    3.429880
 H   -2.916688   -1.420628    1.280888
 H   -3.659916   -2.201025   -1.095146
 H   -2.342733   -3.091214   -0.317764
 H   -0.900356   -1.959561   -1.605830
 H   -3.255630    0.420728   -1.105221
 H   -5.131536   -0.123171    0.053295
 H   -3.283182    2.913268    0.211675
