35 
5zma_ligand_xtb.xyz
 C   -4.101782   -1.129747   -0.137720
 C    6.665109    0.195443   -0.165485
 C   -3.664521    1.530128   -0.010922
 C   -3.801043    2.788506    0.521412
 C    3.880330    0.047411   -0.235277
 C   -2.490696    3.263341    0.702237
 C   -1.647956    2.260035    0.267684
 C   -0.221638    2.180215    0.277435
 C    2.393406   -0.107373   -0.276477
 C    4.621672   -1.039780    0.216336
 C    5.998625   -0.943946    0.251423
 N   -4.560941   -2.189417   -0.780263
 N   -3.149322   -1.108351    0.776903
 C   -2.549029   -2.256922    1.028637
 N    0.379633    1.109698   -0.061470
 C   -3.970170   -3.339868   -0.507794
 C    5.920013    1.262159   -0.637518
 C    4.537555    1.195061   -0.671229
 C   -2.917735   -3.435127    0.392859
 F    6.716840   -1.988876    0.703576
 N    1.715317    1.064293   -0.037757
 O   -2.377917    1.217941   -0.183464
 O    1.847496   -1.163824   -0.482245
 S   -4.885766    0.397235   -0.547516
 H    7.742106    0.232041   -0.127107
 H   -4.719676    3.285861    0.751372
 H   -2.199747    4.210357    1.109172
 H    0.308879    3.084285    0.604633
 H    4.120136   -1.941452    0.530462
 H   -1.757032   -2.218190    1.764271
 H   -4.356264   -4.200488   -1.038340
 H    6.423145    2.152044   -0.983840
 H    3.978999    2.028082   -1.072171
 H   -2.420376   -4.368805    0.592453
 H    2.238220    1.896683    0.247356
