49 
5zqo_ligand_xtb.xyz
 C   -3.390025    0.520452   -0.252763
 C   -4.406311   -0.460977   -0.286183
 C   -5.118983   -2.645577    0.366775
 C   -5.628427   -0.168226   -0.866465
 C    5.400804    0.828670   -0.731497
 C    4.056192    0.487167   -0.167286
 C    3.238219    1.581442    0.390278
 C    1.579392    0.010975    0.878918
 C   -0.469766   -1.365841    1.018823
 C   -1.387588   -0.871441   -0.105125
 C   -5.878971    1.087657   -1.400481
 C   -4.899772    2.057157   -1.360105
 C   -3.667642    1.770207   -0.796516
 C   -1.342405    1.334881    0.821429
 C   -0.414127    0.834806    1.931290
 C    3.579739   -0.770238   -0.150524
 C    4.335542   -1.961339   -0.662037
 C    5.498128   -1.525572   -1.551279
 C    6.282043   -0.407414   -0.870616
 N    2.000739    1.230964    0.884278
 N    0.384414   -0.286166    1.468792
 N   -2.179158    0.235821    0.384826
 N    2.325378   -1.021232    0.373726
 O    3.620661    2.735956    0.415867
 O   -4.107567   -1.673333    0.288983
 H   -5.988402   -2.280636    0.922608
 H   -5.437639   -2.980969   -0.626278
 H   -4.677748   -3.485233    0.902779
 H   -6.410093   -0.910636   -0.896620
 H    5.863154    1.579097   -0.087094
 H    5.256898    1.301139   -1.708411
 H    0.105366   -2.227448    0.678637
 H   -1.085737   -1.676113    1.867437
 H   -2.046890   -1.675909   -0.424014
 H   -0.763272   -0.557044   -0.961510
 H   -6.842276    1.295326   -1.840534
 H   -5.082932    3.037318   -1.773247
 H   -2.905508    2.532910   -0.790317
 H   -0.720014    1.737748    0.007089
 H   -1.974684    2.129659    1.217749
 H   -1.006400    0.490105    2.782454
 H    0.265565    1.629190    2.234232
 H    3.658915   -2.619292   -1.215963
 H    4.718974   -2.528121    0.193827
 H    5.109365   -1.161274   -2.504259
 H    6.145397   -2.380775   -1.754575
 H    6.604842   -0.742687    0.117272
 H    7.172767   -0.164860   -1.451969
 H    2.019725   -1.978926    0.450732
