56 
5zqr_ligand_ani.xyz
 C    1.680309   -0.018240   -0.267575
 C    2.997425   -0.766011   -0.178602
 C    3.269975   -2.074921    0.174153
 C    4.563964   -2.562465    0.235605
 C    5.594370   -1.676027   -0.068885
 C   -6.781639   -0.252585    0.786701
 C   -5.304227   -0.123909    0.540896
 C   -4.385184   -0.174350    1.698666
 C   -2.582146    0.039329    0.233791
 C   -0.399815    0.700158    1.023826
 C    0.958407    0.016268    1.094419
 C    5.394288   -0.355447   -0.427137
 C    4.066281    0.078998   -0.481649
 C    4.428807    2.490431   -0.860582
 C    4.931278    2.946578    0.505375
 C    2.156325    1.400891   -0.720828
 C    0.720046   -0.662730   -1.283928
 C   -0.647902    0.011516   -1.337100
 C   -4.796618    0.038182   -0.702360
 C   -5.629098    0.175626   -1.937007
 C   -7.074171   -0.280799   -1.702823
 C   -7.605125    0.287183   -0.388279
 F    2.251981   -2.911356    0.473610
 F    6.855158   -2.133802   -0.006595
 N   -3.012640   -0.062187    1.454506
 N   -1.235041    0.088592   -0.004188
 N    3.598335    1.316996   -0.829887
 N   -3.415183    0.095553   -0.865914
 O   -4.802403   -0.293954    2.838070
 O    3.801482    3.305834    1.279447
 H    4.768038   -3.589381    0.513646
 H   -7.033711    0.250256    1.727117
 H   -7.034956   -1.312553    0.949854
 H   -0.277933    1.778976    0.817257
 H   -0.921502    0.613315    1.976752
 H    1.593185    0.518735    1.832892
 H    0.834903   -1.017828    1.431624
 H    6.247833    0.280782   -0.640570
 H    5.282767    2.301435   -1.524196
 H    3.844619    3.303202   -1.309013
 H    5.609895    3.802350    0.366991
 H    5.502848    2.134697    0.981974
 H    1.887686    2.183992    0.003465
 H    1.719861    1.695821   -1.688366
 H    0.598640   -1.714314   -1.006098
 H    1.176273   -0.647308   -2.279652
 H   -1.293808   -0.587791   -1.984898
 H   -0.567821    1.018000   -1.778663
 H   -5.175754   -0.388259   -2.764012
 H   -5.630460    1.233025   -2.246321
 H   -7.113226   -1.378138   -1.664064
 H   -7.702845    0.027453   -2.545741
 H   -7.535458    1.383350   -0.409683
 H   -8.663156    0.037949   -0.250844
 H   -3.041537    0.433710   -1.743345
 H    4.087141    3.451177    2.188952
