56 
5zqr_ligand_xtb.xyz
 C    1.522043    0.417677   -0.483326
 C    2.362913   -0.792562   -0.153201
 C    1.997371   -2.037068    0.298153
 C    2.947027   -3.009314    0.587023
 C    4.277046   -2.678212    0.408788
 C   -6.002478   -0.476820    1.127029
 C   -4.697425    0.058533    0.624436
 C   -3.835975    0.792916    1.571091
 C   -2.285312    1.076623   -0.153864
 C   -0.178746    2.058314    0.436741
 C    0.774133    0.910615    0.768263
 C    4.702285   -1.443569   -0.048843
 C    3.723535   -0.499417   -0.339638
 C    5.092416    1.505865   -0.788992
 C    5.400095    2.010810    0.628849
 C    2.595927    1.433142   -0.945800
 C    0.499236    0.096527   -1.585074
 C   -0.445429    1.280489   -1.811199
 C   -4.288137   -0.113318   -0.644503
 C   -5.084340   -0.832073   -1.693732
 C   -6.190434   -1.669620   -1.055598
 C   -6.940140   -0.837409   -0.019489
 F    0.692231   -2.343242    0.469523
 F    5.212552   -3.607238    0.695179
 N   -2.638204    1.255859    1.075484
 N   -1.120467    1.639513   -0.585289
 N    3.877872    0.745182   -0.866956
 N   -3.070274    0.402593   -1.049369
 O   -4.154905    0.988239    2.728835
 O    4.476532    3.026388    0.958494
 H    2.655356   -3.981633    0.943743
 H   -6.448057    0.268505    1.788964
 H   -5.800156   -1.359807    1.741411
 H    0.367194    2.927279    0.060044
 H   -0.755507    2.335875    1.317784
 H    1.493549    1.229807    1.522907
 H    0.186481    0.090568    1.183692
 H    5.754246   -1.248386   -0.169717
 H    5.923815    0.885742   -1.131763
 H    4.997222    2.367530   -1.453098
 H    6.427153    2.400221    0.654790
 H    5.322342    1.172627    1.335236
 H    2.614662    2.319002   -0.306232
 H    2.435635    1.754193   -1.981245
 H   -0.088319   -0.769395   -1.274468
 H    1.017958   -0.156093   -2.511957
 H   -1.155096    1.058483   -2.610348
 H    0.128533    2.158378   -2.126626
 H   -4.422556   -1.468373   -2.289344
 H   -5.526164   -0.091423   -2.369894
 H   -5.749014   -2.539079   -0.564636
 H   -6.872733   -2.027471   -1.829014
 H   -7.313681    0.074362   -0.490618
 H   -7.796794   -1.394834    0.362280
 H   -2.790389    0.264320   -2.007602
 H    4.662106    3.352080    1.844988
