52 
5zqu_ligand_ani.xyz
 O   -6.748793   -1.505146    1.143078
 C   -6.320557   -0.278993    0.768258
 O   -7.090194    0.644893    0.732248
 C   -4.870604   -0.151349    0.410149
 C   -4.525293    0.903707   -0.411243
 C   -3.886102   -1.027150    0.934500
 C   -2.550817   -0.886164    0.615835
 C   -2.220957    0.156699   -0.258223
 C   -3.173940    1.051164   -0.745586
 N   -2.529469    2.001217   -1.510195
 N   -1.277020    1.737814   -1.515618
 N   -1.045114    0.612544   -0.789179
 C    0.277472    0.122017   -0.634351
 C    1.235578    0.996331   -0.148068
 C    2.550352    0.589026    0.086210
 C    3.551384    1.627992    0.593094
 C    3.523807    2.882038   -0.296299
 C    3.164026    2.040306    2.025793
 C    4.987278    1.069099    0.566520
 C    5.069437   -0.369513    1.067113
 C    4.247595   -1.348825    0.205762
 C    4.988117   -1.657601   -1.109157
 C    4.109613   -2.656601    1.002569
 C    2.870952   -0.763875   -0.121212
 C    1.911573   -1.598840   -0.705801
 C    0.614544   -1.191069   -1.000304
 C   -0.339547   -2.106324   -1.726212
 H   -6.059988   -2.163519    0.978700
 H   -5.284290    1.589659   -0.767224
 H   -4.164307   -1.810645    1.636076
 H   -1.792877   -1.555733    1.006484
 H    0.923817    2.019076    0.049417
 H    3.758835    2.630032   -1.336907
 H    2.546111    3.372055   -0.282835
 H    4.265445    3.608289    0.056911
 H    2.136478    2.418278    2.057082
 H    3.224335    1.197403    2.723871
 H    3.828756    2.832402    2.389722
 H    5.629428    1.725667    1.167152
 H    5.368874    1.122389   -0.463080
 H    4.704579   -0.420071    2.102950
 H    6.111730   -0.711983    1.088992
 H    5.161687   -0.752962   -1.702858
 H    5.959508   -2.122049   -0.902502
 H    4.408122   -2.348718   -1.730124
 H    5.102262   -3.032573    1.277848
 H    3.535976   -2.496108    1.922666
 H    3.609193   -3.440356    0.427147
 H    2.184889   -2.619454   -0.962050
 H   -1.183552   -2.404334   -1.096977
 H   -0.761171   -1.611691   -2.607513
 H    0.175816   -3.016496   -2.046676
