61 
5zxi_ligand_dft.xyz
 C    4.433757   -2.977505   -0.526925
 C    3.979536   -1.785221    0.314689
 C    3.112883   -2.210052    1.499281
 C    2.655627   -1.041843    2.354184
 C    1.506213    1.340204    3.397279
 C    0.043665    2.916157    1.626759
 C    0.489301    1.251156   -0.256654
 C    0.298250    3.247955   -1.758081
 C   -1.563046    2.068509   -1.514957
 C   -2.515215    1.035488   -1.077862
 C   -3.489253   -0.426415    0.589158
 C   -5.384691   -1.933470    0.043615
 C   -6.727050   -3.482665    0.947162
 O    7.132942   -2.146167   -0.188341
 C    6.688497   -2.089482   -1.303422
 C    5.305606   -2.576160   -1.714067
 O    1.858522   -0.197194    1.539964
 C    1.348826    0.943666    2.071759
 C    0.924390    2.532366    3.830138
 C    0.193178    3.320570    2.953999
 C    0.616628    1.736161    1.171783
 N   -0.248941    2.151781   -1.117483
 C    1.716304    3.669927   -1.574891
 C   -0.719203    3.759982   -2.517014
 N   -1.863829    3.025909   -2.368380
 C   -2.559247    0.538464    0.229966
 C   -4.412181   -0.914509   -0.341564
 C   -5.633642   -2.601597    1.207999
 C   -7.060575   -3.286131   -0.353102
 O   -6.257384   -2.352356   -0.912863
 C   -4.385088   -0.398161   -1.643254
 C   -3.451679    0.560779   -2.002987
 O    7.443085   -1.584956   -2.305864
 H    3.555407   -3.515112   -0.904704
 H    4.996571   -3.677974    0.100038
 H    3.412374   -1.085956   -0.312322
 H    4.860981   -1.248346    0.684189
 H    3.675405   -2.898025    2.143040
 H    2.228094   -2.753792    1.144902
 H    3.519909   -0.479911    2.736365
 H    2.066851   -1.395044    3.211745
 H    2.072529    0.735320    4.095905
 H   -0.526647    3.526857    0.932361
 H    0.004588    0.271330   -0.283039
 H    1.486919    1.105839   -0.684403
 H   -3.503930   -0.791171    1.611877
 H   -7.197689   -4.167280    1.637521
 H    4.811311   -1.791424   -2.304132
 H    5.448044   -3.429239   -2.391629
 H    1.049858    2.836494    4.864941
 H   -0.261087    4.245689    3.293150
 H    1.958356    3.837372   -0.518774
 H    2.423413    2.926191   -1.963534
 H    1.889712    4.603789   -2.115187
 H   -0.683871    4.627590   -3.162589
 H   -1.885864    0.927511    0.987559
 H   -5.105136   -2.483782    2.142775
 H   -7.810362   -3.710247   -1.002298
 H   -5.100463   -0.757395   -2.375073
 H   -3.436769    0.963159   -3.010388
 H    6.952806   -1.609927   -3.138353
