61 
5zxi_ligand_ani.xyz
 C    4.682880   -3.060455    0.212734
 C    4.152556   -1.711223    0.693676
 C    3.475182   -1.811336    2.057307
 C    3.000618   -0.473060    2.594793
 C    1.724947    1.958501    3.174968
 C   -0.044572    2.970922    1.293562
 C    0.433522    1.009700   -0.284486
 C    0.433072    2.694771   -2.136273
 C   -1.477109    1.606574   -1.875591
 C   -2.527552    0.765466   -1.281248
 C   -3.720006   -0.163764    0.604768
 C   -5.638207   -1.704938    0.290663
 C   -7.131617   -2.926772    1.424953
 O    7.150906   -1.748863   -0.334772
 C    6.563973   -2.208501   -1.277797
 C    5.278517   -3.014189   -1.192047
 O    2.073796    0.076697    1.677072
 C    1.489325    1.266891    1.988350
 C    1.061444    3.159303    3.418343
 C    0.172378    3.666992    2.483561
 C    0.612668    1.778893    1.015406
 N   -0.218954    1.768972   -1.341511
 C    1.817895    3.168380   -1.860413
 C   -0.461025    3.012787   -3.119856
 N   -1.633130    2.326240   -2.966700
 C   -2.707188    0.635306    0.099616
 C   -4.582978   -0.851009   -0.254075
 C   -6.015815   -2.041645    1.557299
 C   -7.347302   -3.060777    0.094436
 O   -6.451693   -2.327769   -0.609790
 C   -4.420940   -0.694645   -1.637610
 C   -3.417294    0.113041   -2.139576
 O    7.055396   -2.037033   -2.527687
 H    3.870465   -3.798474    0.226775
 H    5.454755   -3.417722    0.905439
 H    3.433778   -1.312771   -0.033659
 H    4.982639   -0.996449    0.738455
 H    4.168633   -2.241678    2.792204
 H    2.614618   -2.491404    1.994873
 H    3.848085    0.217740    2.718473
 H    2.521131   -0.607254    3.574543
 H    2.422607    1.573547    3.912816
 H   -0.740140    3.372089    0.560723
 H   -0.135240    0.090286   -0.117693
 H    1.413504    0.689778   -0.651018
 H   -3.832016   -0.258621    1.680239
 H   -7.694847   -3.398263    2.217975
 H    4.554956   -2.589298   -1.903202
 H    5.498504   -4.031294   -1.546514
 H    1.246085    3.691312    4.348719
 H   -0.354684    4.598362    2.670715
 H    1.916769    3.538400   -0.832716
 H    2.560329    2.371435   -1.996694
 H    2.070631    3.978847   -2.546597
 H   -0.314161    3.707952   -3.939008
 H   -2.059998    1.174196    0.787040
 H   -5.562298   -1.708393    2.481748
 H   -8.066242   -3.616653   -0.489916
 H   -5.093061   -1.207391   -2.318480
 H   -3.308282    0.250151   -3.212539
 H    6.476601   -2.460429   -3.176588
