59 
5zyg_ligand_xtb.xyz
 C   -2.369887    1.304815    0.583600
 C   -0.885134   -1.051915    0.848088
 C   -2.222103   -1.034969    1.205726
 C   -2.947477    0.144368    1.078732
 C   -0.270182    0.103603    0.375169
 C    1.973998    1.175866    0.358910
 C    1.155594    0.099422    0.014818
 C   -1.022694    1.264594    0.241229
 C    3.050453   -0.978105   -1.019297
 C    3.314919    1.175377    0.022818
 O    5.754105   -0.559172   -2.353692
 S    5.585776    0.068206   -1.070747
 O    6.129319    1.387579   -0.884102
 C    6.306863   -1.027839    0.195741
 C    6.269848   -0.317742    1.532411
 O    6.820219   -1.168556    2.513943
 C    3.841290    0.097276   -0.661919
 C    1.710492   -0.976254   -0.679809
 C   -3.151436    2.594777    0.390000
 C   -4.614158    2.467006    0.823343
 C   -2.499921    3.710171    1.219076
 C   -3.125905    2.967083   -1.098956
 C   -2.915248   -2.290719    1.646885
 C   -3.513651   -3.021590    0.426891
 C   -4.477468   -2.121712   -0.286958
 C   -4.085868   -1.366432   -1.389990
 C   -5.002178   -0.507954   -1.970791
 N   -5.699859   -2.041737    0.222531
 C   -6.569696   -1.218533   -0.333645
 C   -6.276447   -0.424213   -1.430945
 H   -0.309336   -1.959248    0.961494
 H   -3.984163    0.130394    1.372597
 H    1.557032    2.007055    0.907540
 H   -0.540551    2.141800   -0.162290
 H    3.491055   -1.789832   -1.576712
 H    3.964593    2.000758    0.268950
 H    7.327966   -1.245271   -0.106204
 H    5.725163   -1.944964    0.208402
 H    5.227425   -0.066216    1.783178
 H    6.840098    0.615863    1.448028
 H    6.891924   -0.688616    3.345357
 H    1.080960   -1.803354   -0.971333
 H   -4.689763    2.225416    1.880962
 H   -5.124402    3.413804    0.658190
 H   -5.128946    1.702296    0.245506
 H   -3.062759    4.634647    1.110104
 H   -2.486550    3.436473    2.272054
 H   -1.477888    3.896442    0.901158
 H   -3.567722    2.167431   -1.689492
 H   -3.697145    3.877472   -1.267322
 H   -2.111383    3.131618   -1.451307
 H   -3.726757   -2.051093    2.335084
 H   -2.213059   -2.958342    2.149065
 H   -4.042501   -3.909294    0.774713
 H   -2.710739   -3.319604   -0.249092
 H   -3.082113   -1.449734   -1.778464
 H   -4.728170    0.087663   -2.830474
 H   -7.548828   -1.196145    0.128104
 H   -7.020029    0.236352   -1.849503
