49 
6a84_ligand_dft.xyz
 C   -2.368292   -0.611839   -0.150128
 C   -3.774104   -0.032151   -0.036302
 C   -4.285883    1.095376    0.586517
 C   -5.639719    1.423752    0.489386
 C   -6.481820    0.621270   -0.271239
 C    6.152371   -0.242075    0.375087
 C    4.651935   -0.247852    0.282159
 C    3.900771   -1.223468    1.097184
 C    1.920214   -0.413518    0.172228
 C   -0.087060   -0.232175   -1.238416
 C   -1.525035    0.262847   -1.104105
 C   -5.997324   -0.494529   -0.948785
 C   -4.646159   -0.798206   -0.827259
 C   -2.679539   -2.001633   -0.778776
 C   -1.604602   -0.774065    1.172614
 C   -0.190051   -1.300150    0.947442
 C    3.974317    0.622615   -0.491289
 C    4.617123    1.693687   -1.329334
 C    6.075022    1.918137   -0.918913
 C    6.795778    0.579862   -0.743350
 N    2.512423   -1.271177    0.939280
 N    0.540487   -0.382480    0.074544
 N   -3.951411   -1.816702   -1.471372
 N    2.592137    0.537658   -0.556523
 O    4.473256   -1.978306    1.867086
Cl   -3.261552    2.180659    1.512780
 H   -6.017221    2.300879    1.001822
 H   -7.534614    0.876666   -0.343164
 H    6.507952   -1.277436    0.361787
 H    6.445651    0.153095    1.357123
 H    0.474147    0.473467   -1.854607
 H   -0.058412   -1.196809   -1.772160
 H   -1.512497    1.287588   -0.716815
 H   -1.993464    0.285596   -2.094546
 H   -6.653323   -1.106768   -1.559771
 H   -2.761554   -2.754618    0.020747
 H   -1.907860   -2.337756   -1.476715
 H   -2.147810   -1.455791    1.836513
 H   -1.533325    0.189233    1.682601
 H   -0.200889   -2.313190    0.513045
 H    0.352407   -1.373403    1.889165
 H    4.046749    2.628320   -1.238445
 H    4.562592    1.397460   -2.386408
 H    6.103115    2.471767    0.028140
 H    6.575023    2.538579   -1.669861
 H    6.746657    0.019681   -1.686903
 H    7.856320    0.744964   -0.526416
 H   -4.471908   -2.656672   -1.683550
 H    2.079482    1.313975   -0.945353
