38 
6a9o_ligand_dft.xyz
 C    3.553812   -0.704471   -0.059613
 C   -4.454052    0.156958    0.018834
 C   -2.998800    0.526030   -0.010868
 C    3.530356    1.804744    0.157591
 C   -4.933000   -1.025389    0.589244
 C    5.645062    0.550158    0.055594
 C    1.292559   -1.844822   -0.165948
 C    2.088027   -0.695143   -0.062877
 C   -0.733156   -0.537445   -0.056783
 C    1.418577    0.535635    0.042549
 C    0.022570    0.622535    0.045713
 C   -0.084911   -1.779544   -0.163049
 C   -6.717809    0.794608   -0.529564
 C   -5.356832    1.072416   -0.525486
 N    2.156204    1.704159    0.145398
 C    4.247321    0.515028    0.048153
 C    6.372736   -0.621026   -0.043518
 C    4.312991   -1.882198   -0.159392
 C    5.696475   -1.839966   -0.151331
 O    4.077767    2.891695    0.252853
 N   -2.136677   -0.544914   -0.050008
 C   -6.297430   -1.297414    0.593797
 C   -7.189920   -0.392246    0.027076
 O   -2.635459    1.690319   -0.016622
 H   -4.253456   -1.722917    1.072505
 H    6.128168    1.517716    0.140980
 H    1.760003   -2.819746   -0.250067
 H   -0.470019    1.582642    0.119859
 H   -0.668485   -2.692986   -0.242406
 H   -7.412969    1.506406   -0.963860
 H   -4.972180    1.998475   -0.939592
 H    1.666595    2.586189    0.219680
 H    7.457753   -0.595622   -0.037819
 H    3.820501   -2.844855   -0.244558
 H    6.258531   -2.766018   -0.229793
 H   -2.559271   -1.451618   -0.180807
 H   -6.663467   -2.212297    1.049393
 H   -8.254298   -0.606887    0.028168
