20 
6abp_ligand_xtb.xyz
 C   -1.399306   -0.310570   -0.260683
 C   -0.454472    0.815988    0.202166
 C    0.882484    0.676101   -0.527852
 C    1.449471   -0.729111   -0.267861
 C    0.395011   -1.790862   -0.602153
 O   -2.628005   -0.214660    0.379445
 O   -1.001335    2.081393   -0.080603
 O    1.820998    1.615404   -0.061777
 O    1.832303   -0.862446    1.074334
 O   -0.844110   -1.562478    0.025773
 H   -1.589683   -0.193281   -1.343828
 H   -0.285223    0.702247    1.285923
 H    0.708776    0.814170   -1.606782
 H    2.321774   -0.882699   -0.924265
 H    0.262719   -1.831165   -1.692996
 H    0.729003   -2.759622   -0.230685
 H   -2.567439   -0.732084    1.192546
 H   -1.949243    2.036254    0.100197
 H    1.380526    2.473807   -0.047040
 H    2.310852   -0.054598    1.307852
