20 
6abp_ligand_ani.xyz
 C   -1.400395   -0.295918   -0.252243
 C   -0.446473    0.813624    0.167461
 C    0.890264    0.655529   -0.534937
 C    1.438437   -0.745851   -0.273835
 C    0.382554   -1.792105   -0.610314
 O   -2.582958   -0.131152    0.468394
 O   -0.942597    2.096315   -0.155705
 O    1.832671    1.580637   -0.025202
 O    1.769377   -0.878456    1.089699
 O   -0.848784   -1.558798    0.055617
 H   -1.588955   -0.243666   -1.343021
 H   -0.276789    0.706297    1.248807
 H    0.750320    0.805976   -1.618782
 H    2.320612   -0.911962   -0.914840
 H    0.223868   -1.815782   -1.701550
 H    0.731074   -2.777490   -0.292274
 H   -3.000978   -1.000564    0.514098
 H   -1.784643    2.193029    0.308904
 H    1.370877    2.429594    0.043820
 H    2.246615   -0.065469    1.315624
