21 
6abx_ligand_ani.xyz
 C    1.424675   -1.510852    0.202114
 C   -0.058089   -1.439770   -0.149165
 C   -0.769444   -0.106178    0.090321
 C   -2.258063   -0.279791   -0.242959
 C   -0.278824    1.054011   -0.801621
 C    1.062291    1.667042   -0.414502
 O    2.185273   -2.208908   -0.416608
 O    1.835800   -0.799864    1.260694
 O   -2.643881   -1.022676   -1.104283
 O   -3.093582    0.504508    0.454539
 O    2.172387    1.162614   -0.997703
 O    1.153097    2.595685    0.342066
 O   -0.649895    0.310705    1.466893
 H   -0.568090   -2.223397    0.429302
 H   -0.170451   -1.729812   -1.194504
 H   -1.000447    1.872425   -0.717071
 H   -0.280035    0.728139   -1.848759
 H    1.127646   -0.191169    1.544864
 H   -2.562537    0.956589    1.133760
 H    1.981252    0.373011   -1.523130
 H   -0.936211   -0.429060    2.025623
