38 
6aej_ligand_xtb.xyz
 C   -0.805599   -1.033119   -0.768061
 N   -3.564623   -0.406096    0.069904
 C   -5.884124    0.806221   -0.909859
 C   -4.526081    1.167588   -1.511434
 O    5.484200   -1.074454   -0.804094
 N    4.404524   -1.434526   -0.335116
 O    4.109045   -2.592908   -0.164904
 C    3.470461   -0.423599    0.028083
 C    2.225487   -0.822108    0.529559
 C    3.789416    0.933917   -0.102058
 O    4.952047    1.418966   -0.571641
 C    2.824422    1.885381    0.296109
 O    3.105713    3.200063    0.184595
 C    1.605842    1.471036    0.795607
 C    1.293871    0.114754    0.916964
 C   -0.054078   -0.298095    1.428682
 C   -1.123529   -0.152268    0.326350
 N   -0.544835   -1.746293   -1.623201
 C   -2.511438   -0.503718    0.908404
 O   -2.622507   -0.849222    2.062994
 C   -3.574880   -0.018716   -1.326215
 O   -5.737668    0.426334    0.443308
 C   -4.899392   -0.675758    0.581104
 H   -6.562122    1.660696   -0.911167
 H   -6.338815   -0.017805   -1.481327
 H   -4.127775    2.039111   -0.989216
 H   -4.628281    1.403856   -2.569781
 H    2.022750   -1.879156    0.600766
 H    5.526641    0.654176   -0.813800
 H    4.002292    3.290839   -0.172248
 H    0.900926    2.228898    1.100431
 H   -0.036909   -1.335108    1.764995
 H   -0.355303    0.324355    2.272490
 H   -1.138463    0.882368   -0.035748
 H   -2.575677    0.231977   -1.676534
 H   -3.932474   -0.873127   -1.915977
 H   -5.308875   -1.546145    0.036993
 H   -4.822272   -0.895846    1.647531
