38 
6aej_ligand_dft.xyz
 C   -0.808987   -1.294231   -0.691274
 N   -3.600050   -0.475254    0.046641
 C   -5.824140    0.923559   -0.926490
 C   -4.456455    1.142144   -1.569890
 O    5.518676   -1.036439   -0.783524
 N    4.433012   -1.407104   -0.309620
 O    4.155170   -2.575023   -0.132584
 C    3.463986   -0.390451    0.046983
 C    2.227788   -0.800942    0.560485
 C    3.776744    0.962138   -0.119530
 O    4.924757    1.465081   -0.599553
 C    2.808441    1.916202    0.254661
 O    3.086705    3.229479    0.111227
 C    1.592314    1.508129    0.764603
 C    1.287418    0.145531    0.921658
 C   -0.070138   -0.261560    1.437349
 C   -1.130506   -0.276604    0.314897
 N   -0.557532   -2.106721   -1.476729
 C   -2.543791   -0.512482    0.908029
 O   -2.663076   -0.726114    2.100917
 C   -3.582902   -0.098791   -1.364626
 O   -5.684909    0.564143    0.435194
 C   -4.946980   -0.616388    0.580234
 H   -6.427149    1.833723   -0.946610
 H   -6.371972    0.132872   -1.467394
 H   -3.973997    2.007898   -1.102747
 H   -4.568379    1.347483   -2.639905
 H    2.031841   -1.861658    0.659176
 H    5.500863    0.701548   -0.821940
 H    3.982702    3.305924   -0.250229
 H    0.875442    2.272475    1.051493
 H   -0.035836   -1.248520    1.904231
 H   -0.418945    0.434670    2.203898
 H   -1.117907    0.698419   -0.189595
 H   -2.567046    0.076381   -1.715156
 H   -3.975816   -0.942208   -1.948140
 H   -5.441980   -1.442133    0.043446
 H   -4.875154   -0.839862    1.641480
