18 
6af9_ligand_xtb.xyz
 C   -0.284340    0.544324    0.174741
 C   -1.371656    1.387146    0.183709
 C   -2.636957    0.832243    0.025713
 C   -2.800108   -0.533929   -0.128640
 C   -1.707816   -1.392297   -0.143447
 N    0.788008   -1.459997    0.002772
 C   -0.455157   -0.833534    0.005283
 C    1.183223    0.819788    0.347090
 C    1.809386   -0.568054    0.114532
 O    1.695088    1.794042   -0.523721
 O    2.989338   -0.811108    0.036373
 H   -1.238679    2.450797    0.299817
 H   -3.503289    1.475723    0.024197
 H   -3.792323   -0.943487   -0.244591
 H   -1.835802   -2.456227   -0.270761
 H    0.926720   -2.441244   -0.183890
 H    1.389190    1.104423    1.397181
 H    2.643258    1.632396   -0.616461
