21 
6afd_ligand_xtb.xyz
 C   -2.363406   -2.028176   -0.159504
 C   -1.788087   -0.648822   -0.050766
 C   -2.583548    0.493685   -0.064221
 C   -2.043240    1.765282    0.029808
 C   -0.672596    1.952291    0.156368
 C    0.131337    0.835245    0.173954
 C   -0.421973   -0.442407    0.063951
 N    0.598065   -1.393483    0.075480
 C    1.828634   -0.820320    0.136165
 O    2.892546   -1.386051    0.049218
 C    1.620119    0.693468    0.323233
 O    2.369139    1.456853   -0.585367
 H   -3.448052   -1.986835   -0.205508
 H   -2.076489   -2.632025    0.701122
 H   -1.999898   -2.525043   -1.059077
 H   -3.653830    0.379126   -0.155734
 H   -2.698273    2.622645    0.005690
 H   -0.243759    2.938597    0.227171
 H    0.453101   -2.378742   -0.081075
 H    1.915680    0.942677    1.360946
 H    3.228145    1.026081   -0.686643
