21 
6afd_ligand_ani.xyz
 C   -2.394171   -2.020629   -0.136528
 C   -1.804229   -0.641911   -0.041028
 C   -2.585300    0.512047   -0.086619
 C   -2.030856    1.793251   -0.008311
 C   -0.652761    1.960091    0.129549
 C    0.136378    0.829592    0.192555
 C   -0.431699   -0.440944    0.090630
 N    0.585336   -1.414792    0.107194
 C    1.827065   -0.830258    0.121792
 O    2.899938   -1.371415   -0.039564
 C    1.625354    0.676569    0.358207
 O    2.393572    1.439266   -0.538521
 H   -3.484842   -1.969508   -0.197834
 H   -2.134699   -2.628384    0.738246
 H   -2.035911   -2.552250   -1.026496
 H   -3.664640    0.407103   -0.190756
 H   -2.680312    2.663575   -0.053695
 H   -0.203678    2.948545    0.187035
 H    0.451353   -2.395551   -0.100221
 H    1.924343    0.880285    1.402171
 H    3.244277    0.980077   -0.605606
