24 
6aff_ligand_ani.xyz
 C    4.460583   -0.730686    0.155918
 O    3.330487    0.140520    0.085045
 C    2.141449   -0.477217    0.002129
 O    2.033608   -1.688321   -0.018249
 C    1.003955    0.478082   -0.053655
 C    1.175108    1.862928    0.002559
 C    0.086025    2.731135   -0.018782
 C   -1.218576    2.235825   -0.106831
 C   -1.401033    0.872450   -0.184159
 C   -0.307167    0.002321   -0.145093
 N   -0.759869   -1.318271   -0.160327
 C   -2.130477   -1.379271   -0.132143
 O   -2.822661   -2.361226    0.019783
 C   -2.659370    0.056772   -0.303527
 O   -3.637611    0.356896    0.661500
 H    4.514022   -1.361272   -0.734726
 H    5.330837   -0.077835    0.219742
 H    4.393438   -1.372796    1.037453
 H    2.184078    2.257252    0.070524
 H    0.254591    3.803380    0.034603
 H   -2.076482    2.903604   -0.114129
 H   -0.140226   -2.115399   -0.076914
 H   -3.082528    0.129012   -1.322005
 H   -4.192208   -0.435042    0.724609
