34 
6afh_ligand_ani.xyz
 O   -2.411952   -2.403543    0.197563
 C   -2.085125   -1.277639   -0.124431
 C   -2.822130    0.002025    0.280872
 O   -3.154130   -0.006421    1.649538
 C   -1.826784    1.059163   -0.111496
 C   -1.816816    2.417045    0.137254
 C   -0.765605    3.179807   -0.365370
 C    0.259282    2.573140   -1.096611
 C    0.267675    1.203693   -1.335266
 C   -0.789323    0.456121   -0.824971
 N   -0.993389   -0.931810   -0.877835
 C   -0.034921   -1.935302   -1.310591
 C    0.921887   -2.386988   -0.194650
 C    1.839904   -1.278581    0.261928
 C    1.578089   -0.545137    1.420682
 C    2.381852    0.534192    1.778278
 C    3.463244    0.892744    0.979921
 C    3.737341    0.167343   -0.176946
 C    2.928322   -0.907117   -0.530611
 H   -3.737604    0.067517   -0.336333
 H   -3.434088   -0.914075    1.839609
 H   -2.619386    2.869193    0.714859
 H   -0.739803    4.252315   -0.189463
 H    1.071763    3.185996   -1.482604
 H    1.083744    0.734940   -1.877298
 H    0.520134   -1.527308   -2.160477
 H   -0.615529   -2.789174   -1.665085
 H    1.511767   -3.230794   -0.573707
 H    0.316350   -2.763881    0.635436
 H    0.719993   -0.810645    2.037690
 H    2.165578    1.095853    2.685057
 H    4.095952    1.731871    1.260116
 H    4.582217    0.438865   -0.805321
 H    3.139938   -1.465349   -1.442391
