34 
6afh_ligand_xtb.xyz
 O   -2.554320   -2.223020    0.151333
 C   -2.086941   -1.139552   -0.122205
 C   -2.636295    0.215950    0.347631
 O   -2.862502    0.243595    1.733619
 C   -1.574514    1.165346   -0.124627
 C   -1.435070    2.520533    0.062438
 C   -0.347266    3.158653   -0.521694
 C    0.560529    2.446430   -1.286055
 C    0.427635    1.078383   -1.478097
 C   -0.640383    0.442932   -0.875376
 N   -0.981272   -0.910388   -0.882519
 C   -0.151138   -1.984786   -1.371106
 C    0.791447   -2.509340   -0.271726
 C    1.629980   -1.389947    0.275170
 C    1.180399   -0.638494    1.353745
 C    1.901881    0.453446    1.800639
 C    3.087891    0.802549    1.178717
 C    3.553738    0.049148    0.114805
 C    2.826986   -1.038263   -0.335397
 H   -3.582166    0.406422   -0.194696
 H   -3.253102   -0.605797    1.978851
 H   -2.149778    3.065640    0.658242
 H   -0.211615    4.219898   -0.380318
 H    1.394854    2.959653   -1.740071
 H    1.152119    0.538220   -2.065898
 H    0.419754   -1.621246   -2.227284
 H   -0.815225   -2.791459   -1.693759
 H    1.419825   -3.291038   -0.701362
 H    0.181902   -2.946499    0.520645
 H    0.255253   -0.905743    1.844325
 H    1.533742    1.034225    2.633048
 H    3.650592    1.656774    1.524782
 H    4.483546    0.312115   -0.368638
 H    3.190512   -1.620998   -1.171009
