24 
6afi_ligand_dft.xyz
 O   -2.567362    1.211540   -0.279212
 C   -1.412720    0.836127   -0.334224
 C   -0.178666    1.752766   -0.279095
 O   -0.279574    2.679696    0.770419
 C    0.945530    0.768623   -0.123606
 C    2.298982    0.953347    0.076299
 C    3.131267   -0.169312    0.139933
 C    2.599152   -1.446334   -0.008257
 C    1.230365   -1.644971   -0.211274
 C    0.420881   -0.521629   -0.258215
 N   -0.974461   -0.461140   -0.430812
 C   -1.872152   -1.600566   -0.421959
 C   -2.066533   -2.184440    0.975139
 H   -0.103531    2.264233   -1.254274
 H   -1.192851    3.002871    0.752147
 H    2.704536    1.953689    0.192175
 H    4.196323   -0.042853    0.304821
 H    3.256027   -2.309838    0.037748
 H    0.822084   -2.644889   -0.317958
 H   -1.478588   -2.352670   -1.114510
 H   -2.823746   -1.243285   -0.822611
 H   -2.498307   -1.431453    1.640565
 H   -1.116128   -2.517674    1.403644
 H   -2.745744   -3.041706    0.935838
