34 
6afl_ligand_dft.xyz
 O    0.204423   -3.514604    0.153422
 C   -0.339308   -2.466505   -0.140552
 C   -1.668939   -1.970445    0.449750
 O   -1.628080   -2.048532    1.855210
 C   -1.736302   -0.560142   -0.056129
 C   -2.645352    0.444603    0.211934
 C   -2.437628    1.674902   -0.402608
 F   -3.297611    2.677042   -0.150792
 C   -1.373570    1.905273   -1.260146
 C   -0.460654    0.884368   -1.528339
 C   -0.653279   -0.339924   -0.911475
 N    0.150683   -1.501424   -0.981435
 C    1.510203   -1.566553   -1.488945
 C    2.555723   -1.257208   -0.400585
 C    2.332426    0.097323    0.225316
 C    1.473220    0.239305    1.317953
 C    1.154109    1.499677    1.811698
 C    1.703058    2.638188    1.228735
 C    2.578758    2.507925    0.154269
 C    2.888069    1.245408   -0.342816
 H   -2.489523   -2.581311    0.040552
 H   -1.274434   -2.926938    2.061625
 H   -3.480065    0.300511    0.888819
 H   -1.254441    2.886501   -1.705426
 H    0.394706    1.076274   -2.165607
 H    1.667395   -2.575632   -1.878593
 H    1.597252   -0.865304   -2.323423
 H    2.498691   -2.046119    0.355666
 H    3.549148   -1.316218   -0.860099
 H    1.015656   -0.640546    1.764682
 H    0.465786    1.590439    2.646435
 H    1.453219    3.622625    1.612972
 H    3.020236    3.390785   -0.299201
 H    3.566152    1.149442   -1.188642
