34 
6afl_ligand_ani.xyz
 O   -1.800543   -3.069658    0.171268
 C   -1.698593   -1.898583   -0.138557
 C   -2.653283   -0.785778    0.303008
 O   -2.945006   -0.873347    1.677596
 C   -1.884463    0.445245   -0.089710
 C   -2.133380    1.776474    0.184579
 C   -1.243208    2.705228   -0.333389
 F   -1.452556    4.014061   -0.098209
 C   -0.134920    2.339692   -1.090789
 C    0.119097    0.998130   -1.346666
 C   -0.768162    0.056883   -0.832706
 N   -0.706463   -1.343480   -0.904801
 C    0.430260   -2.135614   -1.345591
 C    1.455339   -2.407734   -0.231111
 C    2.123324   -1.144633    0.257146
 C    1.697525   -0.497947    1.418914
 C    2.246749    0.724525    1.795839
 C    3.239158    1.312935    1.018507
 C    3.681149    0.672469   -0.136311
 C    3.123141   -0.544826   -0.511749
 H   -3.578442   -0.881185   -0.294578
 H   -3.048089   -1.819353    1.858891
 H   -2.984966    2.096099    0.777294
 H    0.519651    3.121706   -1.466402
 H    0.999876    0.699267   -1.906468
 H    0.028379   -3.080845   -1.715622
 H    0.897054   -1.613972   -2.186266
 H    0.936617   -2.919043    0.585771
 H    2.207008   -3.103735   -0.623706
 H    0.908531   -0.945727    2.022164
 H    1.900563    1.219181    2.701286
 H    3.674478    2.264464    1.315543
 H    4.460627    1.122249   -0.746550
 H    3.462938   -1.036057   -1.423265
