40 
6agt_ligand_ani.xyz
 C   -2.598703    0.756859   -0.353225
 C    3.331371    0.169133   -0.575476
 C    2.462457   -0.878498   -1.282549
 C    3.057836    0.228750    0.933498
 C    3.948575    1.264183    1.625271
 C    5.430767    0.995184    1.356696
 C    5.714746    0.937050   -0.146449
 C    4.819615   -0.094938   -0.836591
 N    1.048924   -0.644294   -1.084433
 C    0.244143   -1.560823   -0.493059
 O    0.584629   -2.691628   -0.173921
 C   -1.155215   -1.085019   -0.218647
 O   -1.365132    0.208939   -0.594105
 C   -2.775551    2.086814   -0.739465
 C   -4.000515    2.693210   -0.513336
 C   -5.044847    1.984708    0.092043
 C   -4.851042    0.667034    0.465167
 C   -3.622431    0.034985    0.245162
 C   -3.417618   -1.376388    0.644783
 O   -4.287132   -2.055735    1.165716
 C   -2.073108   -1.870777    0.357039
 H    3.080434    1.155218   -1.003513
 H    2.668092   -1.881239   -0.896521
 H    2.687716   -0.883350   -2.358205
 H    3.253373   -0.766219    1.365047
 H    2.000641    0.451450    1.122551
 H    3.747783    1.276475    2.703201
 H    3.689057    2.263942    1.247263
 H    5.708875    0.033508    1.812350
 H    6.053664    1.759993    1.836592
 H    6.771707    0.709630   -0.330091
 H    5.525849    1.927156   -0.586903
 H    5.012034   -0.109465   -1.917892
 H    5.064603   -1.100297   -0.459349
 H    0.667483    0.264902   -1.298078
 H   -1.951009    2.615070   -1.206216
 H   -4.148427    3.728206   -0.809182
 H   -6.002190    2.466055    0.268063
 H   -5.638837    0.085601    0.936862
 H   -1.815108   -2.888002    0.618365
