21 
6ahi_ligand_dft.xyz
 N    0.740808    1.118872   -1.348161
 C    1.273875    0.898133    0.046679
 C    1.856087   -0.512716    0.157740
 O    2.197851   -0.994797   -1.047084
 C    0.213032    1.187634    1.115593
 C   -0.962626    0.207685    1.187080
 S   -2.037523    0.307836   -0.295800
 C   -2.778016   -1.348468   -0.304826
 O    2.013357   -1.073156    1.203370
 H   -0.217742    0.684308   -1.405271
 H    1.353421    0.688950   -2.049647
 H    0.639738    2.115787   -1.557745
 H    2.113160    1.590839    0.169498
 H    2.613585   -1.867710   -0.933483
 H    0.736455    1.152799    2.075255
 H   -0.144687    2.217141    0.994639
 H   -1.560249    0.441013    2.071360
 H   -0.596048   -0.817078    1.296074
 H   -3.358109   -1.497655    0.607739
 H   -3.452498   -1.391230   -1.162029
 H   -2.016092   -2.124611   -0.400350
