42 
6ajh_ligand_dft.xyz
 C    2.304955   -0.357633   -0.624571
 C   -3.567097    0.912919   -0.057553
 C   -4.908682    0.611099    0.097720
 C   -2.584741   -0.079154   -0.128545
 C   -0.137127   -0.421203   -0.444712
 C   -5.293354   -0.721421    0.187067
 C   -2.993688   -1.412317   -0.037474
 C   -4.342137   -1.722781    0.119267
 C    5.457578    0.407850    0.833413
 C    4.176965    1.234561    1.038333
 C    3.091016    0.347338    1.670828
 C    2.795221   -0.850263    0.753904
 C    4.079990   -1.669005    0.547547
 C    5.162363   -0.784209   -0.091820
 C    4.657826   -0.264778   -1.448705
 C    3.372434    0.557869   -1.250521
 C    3.683626    1.748609   -0.324623
 N    1.013675    0.314747   -0.571483
 O   -0.161235   -1.640350   -0.502210
 N   -1.267593    0.365144   -0.271701
 F   -6.591274   -1.007644    0.336918
 F   -5.808775    1.591175    0.159799
 F   -3.194416    2.204154   -0.144284
 H    2.156777   -1.228380   -1.270560
 H   -2.249425   -2.192683   -0.098666
 H   -4.664868   -2.755326    0.188772
 H    5.830109    0.048628    1.801542
 H    6.244888    1.037329    0.398094
 H    4.389045    2.085609    1.696327
 H    2.177219    0.931089    1.846514
 H    3.423172   -0.012640    2.652682
 H    2.015739   -1.482845    1.190876
 H    3.872188   -2.536189   -0.092420
 H    4.431636   -2.058374    1.511528
 H    6.076933   -1.369841   -0.242029
 H    4.463270   -1.105705   -2.126458
 H    5.425288    0.360472   -1.922790
 H    3.006729    0.919510   -2.218662
 H    4.449702    2.380629   -0.791484
 H    2.803468    2.393710   -0.189280
 H    1.006864    1.270454   -0.248343
 H   -1.172120    1.364061   -0.374904
