12 
6ajr_ligand_dft.xyz
 N   -1.172286    0.983851    0.000142
 C   -1.219080   -0.404106   -0.000079
 O   -2.259131   -1.026322   -0.000038
 N    0.033703   -0.984676    0.000099
 C    1.288007   -0.349401   -0.000057
 O    2.309362   -1.005365   -0.000018
 C    1.200990    1.108078    0.000032
 C   -0.003659    1.705078   -0.000183
 H   -2.071270    1.441367    0.000051
 H    0.045619   -1.996830    0.000085
 H    2.121312    1.674605    0.000254
 H   -0.124974    2.782237    0.000096
