37 
6ak4_ligand_ani.xyz
 C    3.371147   -0.645149    0.023532
 C    2.049584   -1.034493   -0.103936
 C    3.722356    0.702661    0.149024
 C    1.347788    1.260991    0.062307
 C    1.011232   -0.094283   -0.085111
 C   -0.340079   -0.607675   -0.208470
 C   -1.648670    1.423559   -0.611331
 N   -1.690253    2.555343   -0.872134
 C   -2.764137   -0.820668   -0.353701
 O   -2.680583   -2.002383   -0.672811
 C   -4.162071    0.947945    0.769689
 C   -5.136031   -1.141455   -0.144175
 C   -4.884665    2.035678   -0.015038
 O    5.473495   -1.462043    0.520190
 N    4.397583   -1.697573    0.008307
 O    4.088137   -2.758769   -0.510171
 O    4.989418    1.129830    0.224868
 C    2.671311    1.636340    0.168987
 O    3.078433    2.939455    0.300212
 C   -1.534701    0.031114   -0.322472
 N   -3.969810   -0.268042   -0.011285
 C   -5.319031   -2.102630    1.027591
 H    1.836320   -2.089733   -0.225045
 H    0.582351    2.029213    0.096521
 H   -0.422582   -1.692452   -0.192370
 H   -4.760740    0.695036    1.656909
 H   -3.201200    1.298093    1.145275
 H   -5.014814   -1.703215   -1.073710
 H   -6.019120   -0.501798   -0.249444
 H   -4.344022    2.294733   -0.927492
 H   -5.894170    1.713520   -0.292495
 H   -4.978427    2.938937    0.596879
 H    4.962800    2.098084    0.286237
 H    2.303324    3.514813    0.302438
 H   -4.475257   -2.795048    1.088472
 H   -5.396134   -1.562533    1.979238
 H   -6.236373   -2.686064    0.894692
