45 
6an1_ligand_ani.xyz
 C   -5.108727   -1.240124    0.014495
 C   -3.840733   -1.334622   -0.563805
 C   -2.994912   -0.234080   -0.575266
 C   -3.404984    0.978223   -0.018085
 C   -4.668953    1.066822    0.567502
 C   -5.508800   -0.037069    0.596910
 C   -2.508971    2.186820   -0.072018
 C   -0.177655    2.704313   -0.090654
 C   -0.451381    4.066796   -0.090224
 C    0.599973    4.978605   -0.045174
 C    1.910977    4.531401   -0.001000
 C    2.183882    3.169445   -0.004685
 C    1.156041    2.221310   -0.051470
 C   -6.055074   -2.400823    0.091056
 O   -5.919411   -3.359895   -0.852726
 C    1.366331    0.777482   -0.057931
 C    2.471659   -0.023188   -0.018414
 C    3.931529    0.202224    0.018025
 C    4.585244   -1.146964    0.063626
 C    3.619842   -2.143238    0.050558
 C    2.269468   -1.503074   -0.005783
 C    3.957634   -3.487780    0.089171
 C    5.312515   -3.802564    0.141442
 C    6.289967   -2.796211    0.153528
 C    5.936596   -1.450017    0.114234
 O   -6.904439   -2.504034    0.936957
 O   -1.157235    1.763425   -0.139455
 O    4.565978    1.241404    0.013181
 O    1.207081   -2.090543   -0.034937
 H   -3.483094   -2.279335   -0.974098
 H   -2.006023   -0.307209   -1.020613
 H   -4.998328    2.003841    1.011629
 H   -6.484620    0.008935    1.071997
 H   -2.667580    2.804499    0.822587
 H   -2.743124    2.802403   -0.953002
 H   -1.470869    4.439127   -0.127268
 H    0.381693    6.044285   -0.042865
 H    2.732670    5.240524    0.036367
 H    3.213128    2.835750    0.027728
 H   -5.310268   -3.068909   -1.544975
 H    0.446607    0.199984   -0.097966
 H    3.185341   -4.251332    0.078853
 H    5.621255   -4.843712    0.173714
 H    7.339225   -3.075183    0.194657
 H    6.679385   -0.658644    0.122877
