50 
6anl_ligand_ani.xyz
 O    3.299715    1.116660    0.368066
 C    3.798390    0.028677    0.129386
 C    5.286795   -0.170405    0.183490
 C    5.877463   -1.394580    0.500698
 C    7.263332   -1.510901    0.530434
 C    8.063380   -0.407997    0.240165
 C    7.475647    0.818913   -0.058852
 C    6.091312    0.938788   -0.074156
 N    3.085194   -1.086252   -0.240999
 C    1.710777   -1.189891   -0.493906
 C    0.820110   -0.176402   -0.143527
 N    1.354563   -2.332818   -1.079400
 C    0.056189   -2.485505   -1.357135
 C   -0.914063   -1.540568   -1.064554
 C   -0.531027   -0.357345   -0.423786
 C   -1.501375    0.692909   -0.092228
 S   -1.014378    2.353000   -0.108457
 C   -2.673388    2.830937    0.084628
 C   -3.127120    4.260761    0.135688
 C   -2.049481    5.302733   -0.116095
 N   -3.501308    1.841341    0.192500
 C   -2.860033    0.625842    0.153791
 C   -3.645269   -0.595248    0.410421
 C   -3.173138   -1.584829    1.276470
 C   -3.927978   -2.729031    1.496939
 C   -5.150561   -2.895700    0.856062
 C   -5.642679   -1.914584   -0.011202
 C   -6.970857   -2.098545   -0.706458
 C   -4.883245   -0.766112   -0.210608
 H    5.264064   -2.253400    0.765622
 H    7.718198   -2.468663    0.771235
 H    9.145947   -0.503221    0.255054
 H    8.097610    1.683652   -0.275495
 H    5.607551    1.889056   -0.284448
 H    3.606940   -1.878422   -0.589116
 H    1.203957    0.719341    0.324842
 H   -0.219185   -3.418687   -1.842449
 H   -1.952628   -1.717313   -1.320870
 H   -3.586678    4.412298    1.120706
 H   -3.939507    4.356894   -0.594268
 H   -1.255150    5.246227    0.633715
 H   -1.596764    5.177112   -1.103907
 H   -2.488023    6.305042   -0.069470
 H   -2.202502   -1.458707    1.749410
 H   -3.560212   -3.498234    2.170244
 H   -5.735983   -3.796172    1.029000
 H   -6.960749   -2.986538   -1.348782
 H   -7.782159   -2.228357    0.018713
 H   -7.216452   -1.235874   -1.332576
 H   -5.244161    0.025298   -0.865076
