30 
6ap6_ligand_ani.xyz
 C   -2.337430    1.847906    1.400675
 C   -1.065152    1.379986    1.092335
 C   -0.910407    0.264216    0.271235
 C    1.541778    0.417133   -0.223006
 C    1.572033    1.741875   -0.674350
 C    2.780148    2.381388   -0.917541
 C    3.984137    1.710375   -0.722548
 C    3.963438    0.398230   -0.271732
 C    2.760214   -0.264521   -0.009033
 C    2.761272   -1.693049    0.436132
 O    1.856033   -2.475360    0.229542
 O    3.853541   -2.126349    1.096756
 N    0.347167   -0.257921   -0.034369
 C   -2.032272   -0.416795   -0.247827
 C   -1.823189   -1.627365   -1.122320
 C   -3.288277    0.092583    0.079644
Cl   -4.736874   -0.674305   -0.528308
 C   -3.458879    1.211054    0.891202
 H   -2.449536    2.719448    2.038091
 H   -0.185304    1.875947    1.494473
 H    0.635937    2.264512   -0.852147
 H    2.776040    3.410352   -1.266721
 H    4.930741    2.208012   -0.914654
 H    4.908191   -0.134848   -0.164730
 H    4.415255   -1.379186    1.346135
 H    0.448883   -1.269167   -0.027223
 H   -1.135768   -1.393713   -1.943091
 H   -1.387490   -2.463137   -0.556729
 H   -2.761334   -1.978662   -1.554646
 H   -4.460000    1.564650    1.115471
