32 
6ap7_ligand_ani.xyz
 O    4.124297   -2.392848    0.391549
 C   -0.698569    0.376765    0.256834
 C    1.814476    1.707297   -0.717670
 C    3.027350    2.355446   -0.906848
 C    4.220001    1.723225   -0.567912
 C    4.185559    0.420538   -0.093767
 C   -2.134815    2.070181    1.212807
 C   -3.071450    0.186238    0.079360
 O   -4.243844   -1.760814   -0.396129
 N   -4.304263   -0.547859   -0.278657
 O   -5.322705    0.107619   -0.414354
 C   -1.814584   -0.329642   -0.245155
 C   -1.586404   -1.546526   -1.109064
 C   -3.252090    1.384384    0.762596
 C   -0.861050    1.563084    0.969644
 N    0.556288   -0.211294    0.054637
 C    1.766675    0.414624   -0.182242
 C    2.978788   -0.274569    0.058607
 C    2.968707   -1.706685    0.491339
 O    1.994542   -2.286736    0.927749
 H    4.774036   -1.900121   -0.126588
 H    0.886341    2.204933   -0.985360
 H    3.035237    3.365690   -1.306260
 H    5.171323    2.232647   -0.694883
 H    5.126940   -0.047853    0.193833
 H   -2.252469    3.001965    1.757217
 H   -0.616674   -1.480453   -1.612851
 H   -1.596772   -2.464891   -0.511302
 H   -2.364689   -1.649563   -1.869288
 H   -4.257361    1.749074    0.937644
 H    0.015155    2.087662    1.342040
 H    0.640876   -1.188943    0.322247
