32 
6ap8_ligand_ani.xyz
 O    1.995001   -2.481557    0.259474
 C   -0.679343    0.348397    0.227533
 C    1.850529    1.720654   -0.715523
 C    3.079938    2.325348   -0.941891
 C    4.261103    1.627826   -0.704597
 C    4.196411    0.324987   -0.231598
 C   -2.050466    1.981600    1.367477
 C   -3.059572    0.208453    0.124673
 O   -5.331858    0.183224   -0.268574
 N   -4.314638   -0.486998   -0.231928
 O   -4.270918   -1.687569   -0.445500
 C   -1.825382   -0.291654   -0.296208
 C   -1.655715   -1.418545   -1.287736
 C   -3.195524    1.350063    0.907135
 C   -0.795911    1.475242    1.039333
 N    0.557473   -0.227585   -0.068608
 C    1.776558    0.406106   -0.241503
 C    2.970558   -0.303088    0.011561
 C    2.919642   -1.725353    0.474209
 O    3.985854   -2.183616    1.160114
 H    0.930566    2.261361   -0.922528
 H    3.110694    3.347260   -1.309754
 H    5.224517    2.097830   -0.882719
 H    5.124818   -0.228661   -0.091369
 H   -2.131630    2.868342    1.988391
 H   -0.719400   -1.305612   -1.845115
 H   -1.637814   -2.391879   -0.784468
 H   -2.477875   -1.444360   -2.007129
 H   -4.187390    1.713514    1.148317
 H    0.102306    1.954742    1.420171
 H    0.612203   -1.242805   -0.059793
 H    4.567566   -1.451707    1.408439
