32 
6ap8_ligand_xtb.xyz
 O    1.976429   -2.433970    0.276991
 C   -0.678168    0.323563    0.231733
 C    1.816337    1.749952   -0.614453
 C    3.022099    2.376683   -0.822780
 C    4.214999    1.686240   -0.640731
 C    4.179391    0.364934   -0.254095
 C   -2.056267    2.037647    1.227060
 C   -3.064372    0.167710    0.116154
 O   -5.249135    0.259809   -0.477537
 N   -4.304052   -0.467790   -0.253332
 O   -4.347287   -1.678765   -0.302990
 C   -1.821924   -0.383982   -0.194408
 C   -1.628106   -1.639262   -0.981922
 C   -3.187492    1.377271    0.798653
 C   -0.807941    1.506669    0.956348
 N    0.561327   -0.229531   -0.042083
 C    1.754858    0.410608   -0.201771
 C    2.970103   -0.296916   -0.018245
 C    2.947531   -1.716198    0.391935
 O    4.064840   -2.222432    0.933046
 H    0.895081    2.276458   -0.809183
 H    3.040179    3.405197   -1.150081
 H    5.160126    2.174023   -0.819143
 H    5.118135   -0.168929   -0.175604
 H   -2.142553    2.956967    1.784314
 H   -0.864672   -1.486031   -1.743523
 H   -1.293603   -2.443935   -0.325972
 H   -2.544916   -1.972122   -1.456968
 H   -4.174551    1.764183    0.996981
 H    0.078015    1.998052    1.328149
 H    0.637936   -1.245341    0.008035
 H    4.764842   -1.563928    1.033946
