54 
6apw_ligand_ani.xyz
 C   -3.929170   -0.900692   -1.330903
 C   -7.365674   -0.249357    0.024881
 C   -5.095985   -0.297254    1.127625
 N    0.122861    1.751497    1.162211
 C    2.154997   -2.536021   -0.192567
 C    3.621572   -1.212550    1.066441
 C    4.451192    0.088294    0.989142
 C    3.687270    1.399764    0.740810
 C    3.162015    1.669849   -0.674572
 C    2.941716    3.166577   -0.941571
 C    1.923739    3.905590   -0.063112
 C    0.449383    3.661846   -0.407618
 C   -0.043287    2.291111   -0.078644
 C   -0.721878    1.376943   -0.849537
 C   -1.627665   -0.930958   -0.268954
 C   -3.128354   -0.771681   -0.195630
 C   -5.303633   -0.727524   -1.242300
 C   -5.891953   -0.426301   -0.013655
 C   -3.722893   -0.466431    1.031904
 C    5.190827   -1.799798   -0.754347
 C    4.402023   -2.381639    0.419934
 N    2.386415   -1.261645    0.304493
 N   -0.911405    0.316780   -0.025567
 N   -0.404537    0.563950    1.182131
 N    3.319739   -3.259911    0.015080
 O    1.136481   -2.949215   -0.708873
 O   -7.837147    0.037941    1.256218
 O   -8.099070   -0.345482   -0.933276
 S    5.816924   -0.190084   -0.202723
 H   -3.473898   -1.135499   -2.291456
 H   -5.559623   -0.064011    2.081034
 H    3.424725   -1.442797    2.125171
 H    4.939545    0.199420    1.964104
 H    2.865958    1.458472    1.467085
 H    4.385707    2.206619    1.001037
 H    2.244078    1.100034   -0.859304
 H    3.895170    1.317011   -1.409681
 H    3.913342    3.667915   -0.826358
 H    2.662578    3.304049   -1.995457
 H    2.112349    4.981642   -0.164990
 H    2.088356    3.668609    0.995172
 H    0.283755    3.852501   -1.475652
 H   -0.167784    4.390972    0.132692
 H   -1.057199    1.390957   -1.877260
 H   -1.318588   -1.318067   -1.247093
 H   -1.274417   -1.627009    0.497371
 H   -5.942156   -0.822430   -2.115057
 H   -3.101210   -0.355207    1.917828
 H    4.527407   -1.661601   -1.613464
 H    6.026353   -2.437430   -1.052873
 H    5.076355   -2.867056    1.131991
 H    1.574471   -0.732869    0.608657
 H    3.482761   -4.041616   -0.603743
 H   -8.797890    0.129480    1.148869
