25 
6apz_ligand_ani.xyz
 C    1.899364   -1.617687   -0.272186
 C    3.295298    0.752252    0.198728
 C    1.919048    0.786219   -0.019600
 C   -3.078453   -0.211081    0.592229
 C   -2.547992    0.583741   -0.596782
 C   -1.070158    0.864539   -0.423314
 C   -0.259546   -0.418808   -0.487314
 C    1.220781   -0.396242   -0.252153
 C    3.268848   -1.643504   -0.051549
 C    3.973009   -0.465866    0.185065
 O   -2.641629   -0.141094    1.715104
 O   -4.143426   -0.963326    0.268700
 O   -3.224193    1.827402   -0.641096
 O   -0.821837   -1.472224   -0.725390
 O    3.926022    1.938890    0.421091
 H    1.337960   -2.526271   -0.462357
 H    1.410438    1.747490   -0.005199
 H   -2.709634   -0.003290   -1.507676
 H   -0.751224    1.560100   -1.208748
 H   -0.906830    1.368463    0.536990
 H    3.800905   -2.590867   -0.063024
 H    5.047741   -0.495932    0.357925
 H   -4.426805   -1.394708    1.092158
 H   -4.150830    1.642513   -0.840928
 H    4.867597    1.773942    0.554847
