40 
6aqf_ligand_ani.xyz
 C    4.770733    1.108271    0.377194
 C    6.062313    1.554523    0.128276
 C    7.097935    0.631985   -0.013264
 O    8.346663    1.119861   -0.256241
 C    6.828069   -0.731766    0.095464
 C    5.527270   -1.158937    0.340291
 C    4.477309   -0.252884    0.490224
 C    3.067120   -0.740964    0.715093
 C    2.426690   -1.286069   -0.570622
 N    1.099126   -1.832892   -0.357875
 C   -0.013431   -1.075786   -0.271055
 N   -1.169705   -1.743943   -0.148690
 N    0.171599    0.279239   -0.321281
 C   -0.925849    0.992077   -0.253726
 N   -0.957026    2.328398   -0.290902
 N   -2.147622    0.387882   -0.138313
 N   -3.365786    0.982613   -0.073544
 C   -2.256806   -0.988749   -0.088338
 N   -3.546958   -1.291857    0.011708
 C   -4.149935   -0.081034    0.013494
 C   -5.590963    0.029507    0.099687
 C   -6.556551   -0.923823    0.190589
 C   -7.798724   -0.216472    0.237037
 C   -7.479199    1.102200    0.170544
 O   -6.138366    1.272900    0.086368
 H    3.973088    1.840149    0.490291
 H    6.286674    2.613883    0.042700
 H    8.963414    0.381347   -0.335917
 H    7.630652   -1.459655   -0.015216
 H    5.324089   -2.226133    0.414382
 H    2.432095    0.070021    1.089100
 H    3.056257   -1.536743    1.470394
 H    3.048054   -2.082953   -0.990734
 H    2.354688   -0.483117   -1.309708
 H    0.943087   -2.829561   -0.334578
 H   -0.097385    2.848264   -0.367001
 H   -1.848340    2.800215   -0.226232
 H   -6.375645   -1.990830    0.218221
 H   -8.793433   -0.635335    0.309348
 H   -8.064954    2.009805    0.170880
