51 
6aqq_ligand_ani.xyz
 C    1.494034   -2.529427   -0.133800
 C    3.774700   -2.406444    0.350516
 C    4.510974   -1.860095   -0.873960
 C    3.894740    0.073084    0.869001
 C    3.136106    1.389507    0.631906
 C    2.529292    1.629080   -0.756136
 C    2.316677    3.121240   -1.053685
 C    1.384744    3.908915   -0.123428
 C   -0.116658    3.696002   -0.353074
 C   -0.612352    2.340372    0.028621
 C   -1.334873    1.418964   -0.691495
 C   -2.232581   -0.868657   -0.022945
 C   -3.728606   -0.705211    0.150811
 C   -4.243581   -0.385088    1.407213
 C   -5.614435   -0.221698    1.580467
 C   -6.488712   -0.368310    0.508471
 C   -5.956299   -0.680065   -0.731357
 C   -4.594926   -0.851724   -0.930315
 C    3.051849   -1.212786    1.019672
 F   -6.786050   -0.823605   -1.780722
 N    2.656613   -3.270398    0.018479
 N   -1.499317    0.377958    0.162481
 N   -0.934059    0.643423    1.340148
 N   -0.394874    1.823906    1.271503
 N    1.772727   -1.253789    0.333793
 O    0.442522   -2.932228   -0.588391
 S    5.189377   -0.250297   -0.388852
 H    4.477058   -2.893713    1.033698
 H    3.807249   -1.728979   -1.701469
 H    5.320632   -2.517005   -1.200749
 H    4.437179    0.198450    1.813164
 H    3.860265    2.191870    0.827832
 H    2.361268    1.479705    1.404593
 H    3.209211    1.241607   -1.524266
 H    1.592975    1.070502   -0.867094
 H    1.958755    3.231535   -2.086769
 H    3.303621    3.604926   -1.029953
 H    1.620945    3.694044    0.926114
 H    1.591858    4.976797   -0.267071
 H   -0.675033    4.444592    0.222943
 H   -0.357334    3.878446   -1.408238
 H   -1.710655    1.415826   -1.705409
 H   -1.995438   -1.260443   -1.018738
 H   -1.830446   -1.564776    0.718603
 H   -3.567999   -0.258713    2.250540
 H   -6.008224    0.023378    2.563293
 H   -7.561549   -0.244650    0.618834
 H   -4.232746   -1.093511   -1.926698
 H    2.914639   -1.420688    2.092213
 H    2.771443   -4.061596   -0.599179
 H    0.988383   -0.706231    0.675342
