39 
6aro_ligand_ani.xyz
 C    2.565625   -1.609568    0.443090
 C   -3.108716   -2.205225    0.408219
 C   -4.386430   -1.744383    0.783682
 C   -4.677363   -0.410394    0.667805
 C   -2.868056    2.662360   -0.474961
 C   -3.876159    1.875745    0.018023
 C   -3.689085    0.473093    0.162579
 C   -2.447766   -0.097167   -0.206893
 C   -1.437391    0.748845   -0.748696
 C   -1.629412    2.098495   -0.860255
 O   -0.271206    0.160597   -1.172316
 C    0.650623   -0.076489   -0.135349
 C    1.350480   -1.396726   -0.445304
 C    3.476554   -0.390773    0.399199
 C    2.664310    0.854885    0.736277
 O    1.541526    1.002940   -0.138182
 C    3.453800    2.147788    0.607741
 O    2.642608    3.249673    0.941987
 O    4.021254   -0.245392   -0.890926
 O    3.320434   -2.717574   -0.008707
 O    0.501590   -2.504587   -0.252470
 N   -2.163918   -1.419427   -0.060436
 H    2.220969   -1.774098    1.477862
 H   -2.872312   -3.264961    0.507988
 H   -5.116921   -2.452183    1.163588
 H   -5.649347   -0.016590    0.955060
 H   -3.014455    3.735038   -0.576569
 H   -4.830959    2.308119    0.308726
 H   -0.822279    2.712073   -1.247912
 H    0.129804   -0.137007    0.835719
 H    1.684202   -1.332118   -1.491600
 H    4.273787   -0.512006    1.153271
 H    2.289703    0.774023    1.772449
 H    4.296646    2.140006    1.307529
 H    3.854589    2.221273   -0.413092
 H    1.842503    3.150113    0.406749
 H    4.306648   -1.133177   -1.154906
 H    2.685253   -3.427055   -0.187783
 H   -0.426131   -2.203632   -0.360046
