60 
6arv_ligand_ani.xyz
 C    5.213673   -0.345208    0.804725
 C    6.146043   -1.327054    1.502663
 O    6.514697   -2.385413    0.642759
 C    5.371264   -3.100133    0.218869
 C    4.410030   -2.192290   -0.535449
 N    4.048503   -1.054169    0.296271
 C    2.856379   -0.392168    0.041610
 C    1.682792   -1.118543   -0.167961
 C    2.708887    1.023330    0.011186
 C    3.503292    2.202698    0.115464
 N    2.785116    3.297446   -0.038395
 N    1.520831    2.890427   -0.231380
 C    0.448704    3.837298   -0.509979
 C    0.689123    4.544502   -1.842326
 C    0.301608    4.838377    0.633074
 C    1.411812    1.531118   -0.219696
 N    0.282791    0.846165   -0.384449
 C    0.442385   -0.482077   -0.378685
 C   -0.794144   -1.278049   -0.590795
 C   -2.014771   -0.737098   -0.207053
 C   -0.750001   -2.554178   -1.163206
 C   -1.922902   -3.271109   -1.336552
 C   -3.151246   -2.745062   -0.936040
 C   -3.188024   -1.474783   -0.364417
 O   -4.328200   -0.864699    0.081072
 C   -5.565523   -1.551650   -0.093138
 C   -6.715669   -0.694808    0.432509
 O   -6.922980    0.493245   -0.334707
 C   -6.443560   -0.174178    1.849352
 N   -5.529740    0.992282    1.698333
 H    5.770465    0.149489   -0.010078
 H    4.885351    0.422626    1.512979
 H    5.660340   -1.725970    2.406928
 H    7.069922   -0.822192    1.799549
 H    5.724779   -3.905262   -0.432159
 H    4.862540   -3.549615    1.086266
 H    3.510983   -2.748423   -0.806554
 H    4.886301   -1.860524   -1.474135
 H    1.717094   -2.201317   -0.089529
 H    4.570777    2.298213    0.280484
 H   -0.454881    3.225387   -0.580953
 H    0.768677    3.820617   -2.657726
 H   -0.142791    5.222095   -2.062218
 H    1.614676    5.129119   -1.799589
 H    0.109734    4.325649    1.579216
 H   -0.536403    5.513770    0.430490
 H    1.214669    5.434621    0.735546
 H   -2.046195    0.262620    0.218635
 H    0.197420   -2.976179   -1.487324
 H   -1.888631   -4.262357   -1.782444
 H   -4.054434   -3.330243   -1.072968
 H   -5.718231   -1.781842   -1.155267
 H   -5.541093   -2.488185    0.476087
 H   -7.623435   -1.313343    0.421004
 H   -6.901200    0.273100   -1.274065
 H   -7.376433    0.147003    2.313703
 H   -5.984266   -0.938590    2.475665
 H   -5.983711    1.598900    0.989417
 H   -4.652539    0.618747    1.291681
 H   -5.361051    1.478344    2.586774
