60 
6arv_ligand_dft.xyz
 C    5.237789   -0.244493    0.625301
 C    6.188006   -1.151519    1.403273
 O    6.538419   -2.300204    0.668403
 C    5.391436   -3.057896    0.361581
 C    4.414126   -2.246378   -0.478151
 N    4.066191   -1.002894    0.208109
 C    2.858783   -0.386193   -0.011189
 C    1.682785   -1.132389   -0.199050
 C    2.681324    1.022161   -0.031490
 C    3.467801    2.214761    0.016050
 N    2.718233    3.287467   -0.102489
 N    1.442605    2.861486   -0.225755
 C    0.362009    3.812781   -0.461377
 C    0.539033    4.481491   -1.823640
 C    0.289561    4.821476    0.682459
 C    1.363784    1.505865   -0.204716
 N    0.239209    0.802224   -0.364575
 C    0.435818   -0.516491   -0.371556
 C   -0.790806   -1.346304   -0.543444
 C   -2.020435   -0.805288   -0.176330
 C   -0.758452   -2.640421   -1.076673
 C   -1.930211   -3.369554   -1.219353
 C   -3.161637   -2.837201   -0.838164
 C   -3.183374   -1.547798   -0.321133
 O   -4.343785   -0.909124    0.091520
 C   -5.585328   -1.566144   -0.057438
 C   -6.680236   -0.619866    0.432897
 O   -6.847370    0.516733   -0.389846
 C   -6.366025   -0.024626    1.807977
 N   -5.308521    1.022145    1.609229
 H    5.759271    0.187839   -0.242768
 H    4.921675    0.562616    1.288167
 H    5.712808   -1.439281    2.354911
 H    7.116590   -0.618989    1.620866
 H    5.729947   -3.934119   -0.196248
 H    4.895309   -3.393789    1.286569
 H    3.521025   -2.838719   -0.674699
 H    4.882016   -2.009480   -1.445984
 H    1.718767   -2.210991   -0.125232
 H    4.535880    2.337750    0.113656
 H   -0.542146    3.196438   -0.473288
 H    0.562881    3.732499   -2.620515
 H   -0.287809    5.171879   -2.018422
 H    1.475914    5.045580   -1.848577
 H    0.138106    4.315926    1.641262
 H   -0.537475    5.519441    0.517527
 H    1.219083    5.394534    0.740605
 H   -2.050470    0.210358    0.205906
 H    0.179428   -3.069624   -1.411594
 H   -1.895292   -4.367953   -1.642981
 H   -4.062662   -3.428036   -0.957422
 H   -5.762655   -1.826819   -1.109540
 H   -5.608431   -2.491753    0.534176
 H   -7.612564   -1.193351    0.521460
 H   -7.088432    0.255665   -1.287298
 H   -7.242311    0.466775    2.232080
 H   -5.981666   -0.770269    2.505321
 H   -5.652430    1.695592    0.914066
 H   -4.491612    0.547334    1.179320
 H   -5.049384    1.504860    2.471436
