31 
6ary_ligand_xtb.xyz
 N    1.092421   -0.191971    1.484988
 C   -2.366139   -0.771056    0.329816
 C    2.127795    2.719155   -0.299939
 C    3.024816    1.556419    0.107448
 C    2.503028    0.215683   -0.421891
 C    3.469837   -0.932614   -0.108649
 C    3.011839   -2.249265   -0.724577
 C    0.045619   -0.249874   -0.461295
 C   -0.900245   -0.515107    0.511371
 C   -0.176256   -0.463055    1.713793
 C   -3.074195    0.586339    0.153787
 F   -2.706955    1.141478   -1.033112
 F   -4.417244    0.451316    0.104428
 N    1.216958   -0.067248    0.170889
 O   -2.659466   -1.631575   -0.736801
 H   -2.778157   -1.247426    1.226012
 H    2.062821    2.795674   -1.383600
 H    1.123723    2.586850    0.096619
 H    2.524709    3.654418    0.085899
 H    3.077137    1.494657    1.195119
 H    4.032487    1.716808   -0.278463
 H    2.348127    0.282351   -1.504900
 H    3.533731   -1.035839    0.975290
 H    4.458214   -0.672053   -0.489927
 H    2.941011   -2.164909   -1.807409
 H    2.037764   -2.537332   -0.335928
 H    3.718218   -3.040786   -0.488803
 H   -0.039096   -0.183431   -1.527306
 H   -0.532664   -0.612987    2.713135
 H   -2.828221    1.301059    0.952793
 H   -2.448536   -1.184815   -1.566281
