34 
6as6_ligand_ani.xyz
 C    1.369556   -0.980370   -0.582795
 C    3.419621   -0.326003    0.672711
 C   -3.469695   -2.564824   -0.024883
 C   -0.017354    3.260690    0.044768
 C   -0.957554    2.086868   -0.051762
 C   -2.313338    2.284199    0.213153
 C   -3.239512    1.250240    0.145726
 C   -2.837890   -0.041210   -0.190441
 C   -1.485712   -0.252222   -0.443905
 C   -0.543017    0.779231   -0.382762
 C    0.893832    0.462606   -0.670167
 C    2.880433   -1.053005   -0.554590
 C   -3.856663   -1.134583   -0.245746
 C   -4.273281   -1.844537    1.017545
 O    1.705139    1.320271   -0.969554
 O    3.256178   -2.415553   -0.479587
 O    4.687006    0.087448    0.503044
 O    2.813138   -0.175552    1.704943
 H    1.014621   -1.542410   -1.455609
 H    0.953155   -1.468178    0.305262
 H   -2.429622   -2.780182    0.206232
 H   -3.954850   -3.323896   -0.630960
 H   -0.563053    4.161491    0.339825
 H    0.489559    3.443980   -0.906052
 H    0.767431    3.072634    0.783906
 H   -2.651433    3.284335    0.478072
 H   -4.288055    1.437381    0.360871
 H   -1.151791   -1.251660   -0.717075
 H    3.285778   -0.562586   -1.447542
 H   -4.660827   -0.960572   -0.960597
 H   -3.765540   -1.561188    1.934912
 H   -5.323076   -2.097866    1.138922
 H    4.220609   -2.447219   -0.524901
 H    4.948853    0.500540    1.342862
