34 
6as6_ligand_dft.xyz
 C    1.431531   -0.912498   -0.640439
 C    3.406394   -0.288025    0.762247
 C   -3.472314   -2.589134    0.286184
 C   -0.024641    3.219308    0.094017
 C   -0.958636    2.042884   -0.032807
 C   -2.307704    2.202772    0.290053
 C   -3.214405    1.153954    0.203369
 C   -2.800429   -0.115660   -0.199271
 C   -1.454074   -0.291023   -0.502489
 C   -0.534324    0.760969   -0.436666
 C    0.887226    0.502476   -0.813029
 C    2.946047   -0.913762   -0.552078
 C   -3.776299   -1.244054   -0.319026
 C   -4.544159   -1.719936    0.887465
 O    1.606413    1.377520   -1.259345
 O    3.397692   -2.247371   -0.656126
 O    4.721991   -0.512402    0.957964
 O    2.724965    0.329882    1.541046
 H    1.146328   -1.515661   -1.511431
 H    1.000744   -1.389050    0.244110
 H   -2.543115   -2.692873    0.839355
 H   -3.772714   -3.478644   -0.258554
 H   -0.523156    4.040914    0.617301
 H    0.299182    3.574704   -0.887562
 H    0.882422    2.952988    0.643835
 H   -2.654365    3.177867    0.622839
 H   -4.257704    1.316941    0.461499
 H   -1.123408   -1.279277   -0.810508
 H    3.349561   -0.285277   -1.358443
 H   -4.323849   -1.265265   -1.259994
 H   -4.327744   -1.241371    1.838190
 H   -5.581469   -2.010605    0.753840
 H    4.359627   -2.236215   -0.572627
 H    4.955898   -0.099834    1.804658
