25 
6asu_ligand_dft.xyz
 C   -1.333363   -0.025095   -0.006052
 C   -3.748117   -0.801517   -0.125262
 C    5.243812   -0.929944   -0.027515
 C    3.810085   -0.467338   -0.000935
 C    2.841973   -1.200512    0.694377
 C    1.517979   -0.790167    0.729291
 C    1.121836    0.375628    0.064733
 C    2.084176    1.116050   -0.628432
 C    3.408508    0.694168   -0.661295
 C   -0.286729    0.832765    0.096839
 C   -2.742103    0.348078    0.131260
 O   -0.490173    2.152263    0.187558
 O   -3.174067    1.442054    0.427102
 O   -3.481340   -1.562959   -1.212149
 O   -4.697257   -1.016133    0.571204
 H   -1.095288   -1.074542   -0.146494
 H    5.654682   -0.990291    0.986162
 H    5.325089   -1.927755   -0.472230
 H    5.874286   -0.250209   -0.606998
 H    3.134761   -2.102985    1.224675
 H    0.786894   -1.359187    1.295529
 H    1.795361    2.006313   -1.182245
 H    4.139301    1.274860   -1.217459
 H    0.341962    2.587401    0.417706
 H   -2.722687   -1.198101   -1.690426
