26 
6au2_ligand_ani.xyz
 C    0.550750    1.810836    1.027677
 C    1.300518    0.632189    0.437246
 C    2.690573    0.574999    0.443859
 N   -2.811503    0.577425   -0.302792
 C    3.374630   -0.517994   -0.082652
 C    2.654813   -1.582269   -0.617172
 N   -0.828659   -0.365998   -0.150697
 C    1.264341   -1.552894   -0.626482
 C    0.591529   -0.451157   -0.107527
 C   -1.519488   -2.655012    0.689934
 C   -1.797196   -1.264175    0.232080
 C   -1.535580    0.773296   -0.458969
 N   -2.977777   -0.714202    0.144306
 O   -0.067440    2.669533    0.077887
 C   -0.840737    2.022338   -0.916044
 H    1.231973    2.459996    1.583574
 H   -0.214276    1.435618    1.723315
 H    3.247733    1.408255    0.869093
 H    4.461044   -0.537246   -0.070502
 H    3.172703   -2.442477   -1.031748
 H    0.700997   -2.377586   -1.053731
 H   -1.231016   -3.300385   -0.147717
 H   -0.704129   -2.671412    1.419048
 H   -2.424712   -3.063434    1.141236
 H   -1.586403    2.746358   -1.253895
 H   -0.193737    1.764543   -1.769189
