28 
6au9_ligand_xtb.xyz
 C    0.537583    1.292362   -0.321316
 C    4.906763   -0.922634   -0.144518
 C    2.633041   -0.504664    0.068191
 C   -4.697527    0.680168    0.138410
 C   -3.497450   -0.227533    0.014566
 C   -2.238766    0.271651    0.018665
 C   -1.098785   -0.624122   -0.100988
 C    0.261348   -0.061260   -0.109631
 C    1.839128    1.742264   -0.313084
 C    2.896916    0.863209   -0.095854
 C    5.121407    0.465712    0.454503
 C    1.323652   -0.948552    0.066832
 O   -5.858943    0.032016    0.112881
 O   -4.605433    1.870770    0.246831
 O   -3.795071   -1.521356   -0.098841
 O   -1.275864   -1.847545   -0.182942
 O    4.160265    1.369577   -0.051230
 O    3.638764   -1.419961    0.222770
 H   -0.254905    1.997878   -0.507357
 H    5.640690   -1.635584    0.232976
 H    4.981364   -0.860430   -1.239010
 H   -2.116684    1.332352    0.134822
 H    2.070991    2.784206   -0.464950
 H    6.097874    0.870191    0.185091
 H    5.034577    0.406854    1.547629
 H    1.124694   -1.999778    0.203611
 H   -5.703202   -0.925085    0.018169
 H   -2.909000   -1.998223   -0.161390
