69 
6aud_ligand_dft.xyz
 C   -4.652202   -1.704030   -1.306558
 N   -4.404162   -2.045202   -0.054731
 C   -2.560981    1.020781   -0.544485
 C   -3.242913   -0.932122    1.791984
 C   -2.801863    2.282566   -1.020967
 C   -2.915098   -2.300976    2.376860
 C   -0.792546    2.170155   -0.124286
 C    0.604811    2.430356    0.257454
 C    1.275808    1.324672    0.792837
 C    2.640356    1.327991    0.969355
 C    3.399642    2.469750    0.700973
 C    2.742032    3.597518    0.244017
 C    1.357232    3.590655    0.014013
 C   -0.487901    5.095150   -0.165441
 C   -1.489477    4.415703   -1.079671
 C    4.012004   -0.785744   -0.225044
 C    4.212366   -2.312899   -0.147069
 C    3.042197   -3.086140   -0.777766
 C    1.766911   -1.123292   -1.456570
 C   -4.379663   -0.235494    2.539012
 C    3.141943   -0.432170   -1.435924
 C    0.480776   -3.213397   -0.701169
 C    0.434696   -4.085564    0.557969
 C   -0.734965   -2.285164   -0.716593
 C    0.526542   -4.063760   -1.968809
 C   -3.412778   -0.163120   -0.632954
 N   -1.671080    3.010889   -0.746256
 N   -1.313005    0.963306    0.008702
 N    1.753865   -2.347744   -0.592109
 N   -3.597582   -1.050652    0.371012
 N   -4.064644   -0.554680   -1.718063
 O    0.853735    4.747707   -0.471294
 O    2.245923   -1.175561    1.777225
 S    3.396050   -0.224378    1.449810
 H   -5.276078   -2.312189   -1.946283
 H   -2.348892   -0.304114    1.815259
 H   -3.656374    2.710283   -1.522436
 H   -2.617742   -2.181942    3.422709
 H   -3.783431   -2.962230    2.331444
 H   -2.090838   -2.777008    1.837461
 H    0.703998    0.435148    1.030129
 H    4.474397    2.490249    0.858354
 H    3.279267    4.518157    0.045265
 H   -0.705915    4.881231    0.887994
 H   -0.542778    6.173487   -0.321931
 H   -1.161491    4.514779   -2.118953
 H   -2.459949    4.909078   -0.976243
 H    4.977865   -0.280014   -0.319654
 H    4.353445   -2.640303    0.886714
 H    5.123363   -2.582251   -0.688676
 H    2.952578   -4.071145   -0.323315
 H    3.181942   -3.219808   -1.853097
 H    0.987436   -0.459081   -1.085104
 H    1.505967   -1.424408   -2.473251
 H   -4.577442    0.751270    2.108967
 H   -5.295110   -0.831816    2.478300
 H   -4.116401   -0.106066    3.593055
 H    2.994132    0.647033   -1.516438
 H    3.719424   -0.732727   -2.317834
 H    1.251145   -4.811486    0.608206
 H    0.452999   -3.473413    1.466059
 H   -0.498843   -4.654223    0.555253
 H   -1.639979   -2.890060   -0.611041
 H   -0.718070   -1.565379    0.107370
 H   -0.833527   -1.728163   -1.652185
 H    0.633559   -3.456658   -2.873420
 H   -0.421827   -4.600772   -2.054147
 H    1.324525   -4.811212   -1.946861
 H    1.769272   -1.981329    0.397019
