69 
6aud_ligand_ani.xyz
 C   -4.913585   -3.453687   -0.289091
 N   -3.785257   -3.889341    0.231736
 C   -3.291532   -0.346759   -0.309460
 C   -1.698280   -2.838873    0.910233
 C   -4.074098    0.669702   -0.780807
 C   -1.094576   -4.219987    0.700366
 C   -2.120413    1.446363   -0.143685
 C   -0.976889    2.321837    0.147245
 C    0.153934    1.674985    0.662578
 C    1.326860    2.361196    0.915246
 C    1.411738    3.726968    0.679010
 C    0.304495    4.389041    0.178633
 C   -0.889774    3.713506   -0.069436
 C   -3.226651    4.226582   -0.196340
 C   -3.830653    3.131240   -1.046151
 C    3.826343    1.569321    0.047992
 C    4.991182    0.584885    0.247549
 C    4.800347   -0.689957   -0.583189
 C    2.564172   -0.119359   -1.386744
 C   -1.782381   -2.458524    2.384953
 C    3.120923    1.304587   -1.284814
 C    3.080230   -2.545335   -0.816273
 C    3.641032   -3.355222    0.358217
 C    1.566220   -2.758336   -0.872685
 C    3.715158   -3.021324   -2.127536
 C   -3.736591   -1.727383   -0.213423
 N   -3.333606    1.814170   -0.670991
 N   -2.078152    0.144271    0.082642
 N    3.362348   -1.082445   -0.556564
 N   -3.019997   -2.779957    0.266164
 N   -4.939872   -2.132129   -0.581939
 O   -1.885527    4.501652   -0.565422
 O    2.283793   -0.009992    1.604112
 S    2.728578    1.444375    1.534545
 H   -5.753744   -4.116049   -0.461160
 H   -1.095304   -2.088329    0.396818
 H   -5.082203    0.648428   -1.177930
 H   -0.081675   -4.261987    1.113185
 H   -1.704796   -4.984659    1.188425
 H   -1.048270   -4.447328   -0.368754
 H    0.114450    0.610096    0.848319
 H    2.337740    4.262975    0.871814
 H    0.329560    5.454041   -0.024140
 H   -3.285670    3.964469    0.867913
 H   -3.770946    5.159580   -0.362088
 H   -3.635145    3.333674   -2.104968
 H   -4.913679    3.116958   -0.896058
 H    4.187354    2.599393    0.082289
 H    5.073960    0.339211    1.311981
 H    5.930751    1.061443   -0.053580
 H    5.419905   -1.491844   -0.178371
 H    5.114728   -0.523184   -1.621511
 H    1.535603   -0.124862   -1.012762
 H    2.551216   -0.436562   -2.435794
 H   -2.160194   -1.439133    2.501021
 H   -2.437024   -3.148347    2.929177
 H   -0.783121   -2.504047    2.833782
 H    2.317529    2.026342   -1.458668
 H    3.859586    1.473145   -2.078712
 H    4.733903   -3.317070    0.410899
 H    3.238047   -2.989413    1.310840
 H    3.358952   -4.409018    0.257003
 H    1.332245   -3.825216   -0.972927
 H    1.080737   -2.400965    0.047094
 H    1.108784   -2.244462   -1.725373
 H    3.344187   -2.457248   -2.991348
 H    3.469936   -4.076204   -2.293980
 H    4.807101   -2.937124   -2.106071
 H    3.020603   -0.904749    0.419735
