52 
6aum_ligand_ani.xyz
 F   -9.092278   -0.264253    0.149703
 C   -8.757033    0.998817    0.452459
 F   -8.337982    1.007608    1.726722
 F   -9.842975    1.757761    0.359821
 O   -7.829735    1.496637   -0.391746
 C   -6.606489    0.820128   -0.444600
 C   -6.428307   -0.192491   -1.375279
 C   -5.175365   -0.776688   -1.496161
 C   -5.572657    1.226865    0.384354
 C   -4.318795    0.640826    0.267024
 C   -4.113726   -0.364210   -0.683140
 N   -2.866951   -0.987138   -0.889721
 C   -1.741633   -0.915740   -0.086298
 O   -1.675065   -0.278318    0.953242
 N   -0.690552   -1.672714   -0.565573
 C    0.604589   -1.599314    0.098259
 C    1.323847   -0.260686   -0.126383
 C    2.690485   -0.254509    0.558035
 C    3.556821   -1.411593    0.057789
 C    2.854634   -2.742571    0.302647
 C    1.475523   -2.770321   -0.358987
 O    4.800956   -1.467377    0.753344
 C    5.786813   -0.585855    0.444701
 C    5.717157    0.386190   -0.556927
 C    6.814924    1.207331   -0.791084
 C    7.979218    1.079909   -0.037263
 C    9.181396    1.951586   -0.224515
 O    9.999728    2.138179    0.637923
 O    9.326778    2.542714   -1.431888
 C    8.024694    0.124418    0.981351
 C    6.949759   -0.709460    1.215408
 H   -7.264224   -0.512510   -1.988502
 H   -5.024841   -1.566011   -2.227702
 H   -5.757282    1.999123    1.124586
 H   -3.504280    0.946501    0.908476
 H   -2.860235   -1.672825   -1.630669
 H   -0.667005   -1.860034   -1.559347
 H    0.410078   -1.693601    1.172894
 H    0.693196    0.545836    0.260227
 H    1.447036   -0.093177   -1.207259
 H    2.565361   -0.367551    1.643738
 H    3.196087    0.705388    0.403286
 H    3.745736   -1.303964   -1.020472
 H    2.754992   -2.878233    1.388375
 H    3.483591   -3.561934   -0.063357
 H    1.592724   -2.709817   -1.452942
 H    0.957280   -3.711682   -0.143110
 H    4.825071    0.512697   -1.161976
 H    6.723719    1.979188   -1.554663
 H    8.683802    2.191408   -2.062544
 H    8.926321    0.056251    1.583395
 H    6.978075   -1.466620    1.993074
