28 
6ax1_ligand_ani.xyz
 N    3.818612   -0.399538    0.228456
 C   -2.543828    0.034009   -0.042242
 N   -1.028624    1.936616   -0.305149
 C   -1.227339    0.688349    0.024102
 C   -3.875124   -1.964448    0.179481
 C    2.262396    0.923951    0.662657
 C    0.809338    0.954584    0.358794
 C   -5.017888   -1.236647   -0.143797
 C   -4.922527    0.125893   -0.417108
 C   -3.689439    0.764216   -0.369783
 C   -2.639003   -1.331033    0.232144
 N   -0.093548    0.025709    0.448563
 O    0.323983    2.115939   -0.085855
 C    2.809894   -0.380591    1.283370
 C    3.251664    0.705194   -0.528029
 C    4.615325   -1.393704   -0.228315
 O    5.162701   -1.384342   -1.312823
 H   -3.948441   -3.027953    0.392165
 H    2.528994    1.814610    1.232195
 H   -5.984548   -1.731575   -0.182818
 H   -5.814006    0.694519   -0.668386
 H   -3.605591    1.826180   -0.583909
 H   -1.736722   -1.881088    0.485437
 H    3.214546   -0.297448    2.297533
 H    2.102919   -1.216289    1.227896
 H    2.787165    0.385240   -1.466547
 H    3.958080    1.515930   -0.723201
 H    4.728248   -2.213044    0.508328
