28 
6axb_ligand_ani.xyz
 C    0.720347    1.427783   -0.120073
 C    4.434738    1.198947    0.160817
 C    5.071086   -1.131843    0.078704
 C    2.725046   -0.539073   -0.061756
 C   -4.769033    0.078761   -0.033966
 C   -3.347723   -0.179143    0.537361
 C   -2.174901    0.572600   -0.050354
 C   -1.040770   -0.395523   -0.391106
 C    0.374118    0.054471   -0.217963
 C    2.028060    1.806477    0.006256
 C    3.067067    0.836388    0.038910
 C    5.412811    0.240479    0.179449
 C    3.761449   -1.511767   -0.038342
 C    1.360231   -0.899415   -0.192155
 O   -5.550820   -0.799457   -0.243664
 O   -5.056603    1.373446   -0.288825
 O   -3.205504   -0.967555    1.436276
 O   -1.298946   -1.500005   -0.814243
 H   -0.058376    2.184468   -0.164614
 H    4.689127    2.253886    0.236768
 H    5.859556   -1.879764    0.094166
 H   -1.844298    1.301503    0.697616
 H   -2.449163    1.107669   -0.968598
 H    2.288425    2.859135    0.085610
 H    6.458133    0.524375    0.270230
 H    3.494861   -2.564139   -0.117002
 H    1.083970   -1.946934   -0.280076
 H   -4.362402    1.953522    0.054855
