50 
6ay5_ligand_ani.xyz
 C    4.588581   -0.294511    0.096914
 C    5.206051   -1.363682    0.790275
 C    0.800057   -0.247897    0.181017
 C    3.182639    0.139504    0.099505
 C    2.903764    1.505474    0.015849
 C    1.619167    2.020140    0.007849
 C    0.533869    1.123236    0.053064
 C    2.090111   -0.742900    0.180306
 C    2.272521   -2.236884    0.257307
 N    6.760944   -0.381679   -0.244631
 C    5.646871    0.313407   -0.555839
 C    8.112095   -0.143505   -0.698199
 C   -1.003022    3.004591    0.307876
 C   -0.014451    3.872350   -0.462410
 C    1.398846    3.520927   -0.017017
 C   -1.872591    0.778198   -0.326231
 C   -1.834698   -0.074429   -1.444584
 C   -2.935309   -0.850197   -1.783773
 C   -4.077950   -0.787327   -0.998917
 C   -4.116511    0.055967    0.118060
 C   -3.029963    0.852652    0.449533
 C   -6.271943   -0.851912    0.264408
 C   -5.612786    0.779841    1.985865
 F    1.120368   -2.890662   -0.034388
 F    2.623911   -2.602695    1.533021
 N   -0.773136    1.603430   -0.001759
 N   -5.329134    0.005130    0.795119
 N    6.513788   -1.404251    0.579869
 O   -7.381006   -1.043652    0.697907
 S   -5.586368   -1.652916   -1.195195
 H    4.742870   -2.085731    1.445988
 H   -0.017429   -0.953380    0.282320
 H    3.747177    2.192062   -0.027116
 H    3.047730   -2.605698   -0.417880
 H    5.682502    1.161410   -1.230440
 H    8.125025    0.772977   -1.290575
 H    8.774875   -0.030212    0.162854
 H    8.456817   -0.979966   -1.311629
 H   -2.030130    3.253586    0.026645
 H   -0.893651    3.189588    1.391091
 H   -0.230900    4.931373   -0.286959
 H   -0.133447    3.681712   -1.535153
 H    2.142670    3.998565   -0.666842
 H    1.574934    3.923707    0.992550
 H   -0.926108   -0.136730   -2.038823
 H   -2.895032   -1.507101   -2.646390
 H   -3.063128    1.517779    1.309317
 H   -4.919182    0.522915    2.794288
 H   -5.542790    1.853483    1.778759
 H   -6.630719    0.539086    2.294850
