35 
6ayh_ligand_ani.xyz
 C   -2.454983    2.400674    0.470411
 C    1.711318    0.350340   -0.392756
 C    4.059655    0.025893   -0.057419
 C   -3.289386   -1.212334   -0.535613
 C   -2.041506   -1.747629    0.136495
 C   -0.866226   -0.813798   -0.123135
 C   -2.305976    1.057072   -0.238594
 C   -3.561084    0.207029   -0.068440
 C    1.473675   -0.817475    0.332757
 C    3.020288    0.770411   -0.592119
 C    3.832897   -1.128968    0.682900
 C    2.530811   -1.551453    0.879965
 N    5.441174    0.468263   -0.275760
 O   -4.425025   -1.987928   -0.217801
 O   -1.807186   -3.044224   -0.372814
 O   -1.166012    0.466082    0.379742
 O   -4.577533    0.802312   -0.840355
 O   -1.846661    3.400263   -0.188738
 O   -3.029701    2.561200    1.518663
 O    0.228761   -1.333583    0.571863
 O    5.613350    1.480711   -0.932582
 O    6.334604   -0.202862    0.211799
 H    0.898570    0.945684   -0.790838
 H   -3.128023   -1.194986   -1.629174
 H   -2.211388   -1.769706    1.225497
 H   -0.629637   -0.761197   -1.200563
 H   -2.135492    1.220894   -1.312172
 H   -3.812442    0.183260    1.002047
 H    3.241651    1.667664   -1.159191
 H    4.674306   -1.677673    1.090253
 H    2.317870   -2.448745    1.452714
 H   -4.207455   -2.902952   -0.445102
 H   -1.001195   -3.366952    0.051955
 H   -5.366822    0.256929   -0.713984
 H   -1.981826    4.195594    0.353964
