35 
6ayh_ligand_dft.xyz
 C   -2.484092    2.412438    0.435710
 C    1.697542    0.407020   -0.275084
 C    4.056393    0.034761   -0.058869
 C   -3.257911   -1.231471   -0.537228
 C   -2.016634   -1.785708    0.146453
 C   -0.865283   -0.804617   -0.052763
 C   -2.302943    1.042599   -0.208843
 C   -3.556181    0.185294   -0.062068
 C    1.471068   -0.800525    0.389125
 C    3.003029    0.820372   -0.504288
 C    3.840984   -1.160200    0.620120
 C    2.540970   -1.577109    0.842095
 N    5.429208    0.477764   -0.302369
 O   -4.399406   -2.012549   -0.270071
 O   -1.748858   -3.041082   -0.434767
 O   -1.207843    0.452378    0.476918
 O   -4.561493    0.782423   -0.842607
 O   -1.843066    3.363992   -0.259174
 O   -3.090580    2.616541    1.454095
 O    0.231035   -1.304529    0.649017
 O    5.589087    1.533992   -0.895811
 O    6.335696   -0.235667    0.101252
 H    0.870576    1.038665   -0.573842
 H   -3.062747   -1.193184   -1.622100
 H   -2.201570   -1.869160    1.226964
 H   -0.617787   -0.713190   -1.124897
 H   -2.068722    1.172016   -1.275480
 H   -3.831053    0.159934    1.001746
 H    3.209573    1.753064   -1.014353
 H    4.686621   -1.746054    0.957984
 H    2.333025   -2.505917    1.361513
 H   -4.196909   -2.914155   -0.552786
 H   -1.013947   -3.438122    0.049106
 H   -5.339275    0.213014   -0.777098
 H   -1.970471    4.197620    0.222855
