35 
6ayi_ligand_ani.xyz
 C   -2.456766    2.400745    0.470080
 C    1.712064    0.350161   -0.393780
 C    4.060390    0.025980   -0.057510
 C   -3.289377   -1.212987   -0.535093
 C   -2.041012   -1.747541    0.136786
 C   -0.866200   -0.813010   -0.122680
 C   -2.306877    1.056905   -0.238322
 C   -3.561886    0.206436   -0.068515
 C    1.474184   -0.817214    0.332261
 C    3.021135    0.770137   -0.592884
 C    3.833379   -1.128799    0.682873
 C    2.531203   -1.551206    0.879649
 N    5.442035    0.468555   -0.275258
 O   -4.424655   -1.988970   -0.216807
 O   -1.806040   -3.043769   -0.373201
 O   -1.166574    0.466659    0.380450
 O   -4.578316    0.800910   -0.841202
 O   -3.033764    2.561763    1.517027
 O   -1.846482    3.399865   -0.187952
 O    0.229108   -1.332788    0.571895
 O    5.614325    1.480832   -0.932256
 O    6.335337   -0.202245    0.212937
 H    0.899536    0.945350   -0.792555
 H   -3.128273   -1.196038   -1.628723
 H   -2.210655   -1.770242    1.225828
 H   -0.629870   -0.760049   -1.200122
 H   -2.135839    1.220380   -1.311846
 H   -3.814011    0.183102    1.001805
 H    3.242454    1.667162   -1.160363
 H    4.674533   -1.677642    1.090610
 H    2.318186   -2.448429    1.452493
 H   -4.206870   -2.904062   -0.443603
 H   -0.998884   -3.365706    0.049913
 H   -5.367382    0.255101   -0.715167
 H   -1.982087    4.195480    0.354216
