48 
6b0y_ligand_dft.xyz
 C   -3.009948    0.286124   -0.077168
 C   -5.385115    0.584902   -0.826780
 C   -7.166658   -0.766240    0.067498
 C   -1.995084   -0.592792   -0.538672
 C   -0.673242   -0.226079   -0.545891
 C    3.521876   -0.895532    0.993989
 C    7.930744   -0.238028   -0.046577
 O    5.798860   -2.377023    1.039061
 C    5.753880   -1.467676    0.222699
 N    4.671309   -0.631451    0.141877
 C    4.528192    0.455411   -0.819501
 C    3.462537    1.436027   -0.350414
 N    2.170577    0.762860   -0.223835
 C    1.070969    1.556851   -0.041271
 N    1.296452    2.847586    0.154459
 C    0.236597    3.636555    0.428293
 N   -1.016874    3.288987    0.558902
 C   -1.287633    1.980924    0.273036
 C   -2.635012    1.555459    0.301759
 C   -4.445865   -0.093187   -0.046606
 C   -6.735193    0.253297   -0.776053
 C   -6.252425   -1.450334    0.862639
 C   -4.914116   -1.101432    0.793601
 F   -4.038640   -1.748816    1.576607
 C   -0.282865    1.054056   -0.091786
Cl   -2.420751   -2.164425   -1.171039
 C    2.229298   -0.630860    0.232665
 C    6.926807   -1.192995   -0.705362
 H   -5.039211    1.375158   -1.486607
 H   -8.218325   -1.031279    0.112224
 H    0.052940   -0.919429   -0.948203
 H    3.557643   -0.280036    1.902503
 H    3.567622   -1.940890    1.303163
 H    7.492027    0.748078    0.142614
 H    8.261876   -0.647049    0.912188
 H    8.808360   -0.100336   -0.684777
 H    4.262251    0.072816   -1.815464
 H    5.467804    1.005922   -0.914051
 H    3.364797    2.243816   -1.077589
 H    3.762799    1.898921    0.598692
 H    0.474363    4.686861    0.585062
 H   -3.380413    2.272951    0.628565
 H   -7.446918    0.788889   -1.395632
 H   -6.558633   -2.242319    1.537000
 H    1.385584   -0.834081    0.895898
 H    2.170197   -1.324150   -0.616497
 H    7.403175   -2.161001   -0.876851
 H    6.605002   -0.804671   -1.676920
