48 
6b0y_ligand_ani.xyz
 C   -3.010113    0.286518   -0.107990
 C   -5.408467    0.608711   -0.782122
 C   -7.172941   -0.779636    0.081202
 C   -1.990893   -0.586090   -0.572841
 C   -0.669243   -0.211696   -0.577314
 C    3.523579   -0.878466    1.055526
 C    7.914961   -0.243090   -0.210215
 O    5.862359   -2.253691    1.181158
 C    5.752988   -1.437885    0.276956
 N    4.642030   -0.655933    0.146758
 C    4.493422    0.400968   -0.847142
 C    3.461540    1.410797   -0.375435
 N    2.164693    0.759319   -0.170819
 C    1.079432    1.565329   -0.019731
 N    1.308355    2.853133    0.190836
 C    0.239978    3.629494    0.475156
 N   -1.016551    3.291568    0.536567
 C   -1.287336    1.986939    0.231677
 C   -2.632037    1.560101    0.254903
 C   -4.450256   -0.089178   -0.042283
 C   -6.755151    0.265820   -0.737355
 C   -6.246420   -1.474219    0.849474
 C   -4.909797   -1.117042    0.780594
 F   -4.032572   -1.788433    1.543627
 C   -0.282840    1.068994   -0.118233
Cl   -2.379815   -2.162446   -1.194246
 C    2.216581   -0.624098    0.317025
 C    6.872671   -1.239718   -0.728890
 H   -5.079475    1.431047   -1.414080
 H   -8.223004   -1.054239    0.126415
 H    0.066188   -0.907698   -0.961079
 H    3.601961   -0.230236    1.939648
 H    3.577410   -1.911154    1.401943
 H    7.496082    0.759430   -0.063783
 H    8.313449   -0.580089    0.752342
 H    8.749247   -0.157697   -0.913664
 H    4.195590   -0.008950   -1.823523
 H    5.452942    0.909045   -0.982784
 H    3.337219    2.202367   -1.116447
 H    3.797849    1.892526    0.553379
 H    0.473604    4.673817    0.684403
 H   -3.374669    2.286480    0.565667
 H   -7.475461    0.817512   -1.333586
 H   -6.536116   -2.289508    1.504246
 H    1.369206   -0.816614    0.983628
 H    2.153403   -1.329978   -0.523531
 H    7.341625   -2.218685   -0.853585
 H    6.486469   -0.932321   -1.706502
