37 
6b1c_ligand_dft.xyz
 C    2.982000    2.247227   -0.613536
 C    1.676559    1.819658   -0.582314
 C    1.400603    0.475539   -0.251460
 N   -2.135404   -0.185730   -0.032448
 C    0.007612    0.002796   -0.197955
 C   -1.139412    0.727575    0.030975
 N   -1.630620   -1.412600   -0.293914
 C   -3.531668   -0.000479    0.131977
 C   -4.016983    0.992584    0.977144
 C   -5.388103    1.178400    1.118782
 C   -6.279875    0.361192    0.433385
 N   -0.348828   -1.301067   -0.392014
 C   -5.758523   -0.636925   -0.391908
 C   -4.406310   -0.832182   -0.565997
 C    3.628887    0.015953   -0.016875
 N    2.356808   -0.398899    0.022656
 N    5.978995   -0.557877    0.251743
 C    6.998063   -1.553653    0.556875
 O   -7.612811    0.535715    0.574827
 C    6.322950    0.736385   -0.055751
 C    4.654810   -1.013413    0.300792
 C    5.406416    1.683882   -0.340205
 C    4.013431    1.334599   -0.325715
 F   -6.650001   -1.415082   -1.041578
 O    4.420316   -2.171032    0.587642
 H    3.225798    3.274946   -0.868492
 H    0.866903    2.499836   -0.828141
 H   -1.320716    1.773748    0.219103
 H   -3.330507    1.610355    1.546120
 H   -5.782971    1.946687    1.774039
 H   -4.036983   -1.614411   -1.217521
 H    7.983429   -1.091481    0.480675
 H    6.848999   -1.945106    1.565848
 H    6.925123   -2.389065   -0.143089
 H   -8.064964   -0.128118    0.036362
 H    7.386729    0.945764   -0.053948
 H    5.719735    2.693500   -0.577942
