37 
6b1c_ligand_ani.xyz
 C    3.013056    2.300719   -0.495752
 C    1.703257    1.901291   -0.445521
 C    1.413134    0.542282   -0.180966
 N   -2.128397   -0.129457    0.032794
 C    0.014493    0.085524   -0.102559
 C   -1.151860    0.809906   -0.025374
 N   -1.594027   -1.362317   -0.023122
 C   -3.537875    0.032446    0.128236
 C   -4.074061    1.131051    0.790780
 C   -5.452707    1.291480    0.876905
 C   -6.300611    0.355696    0.297202
 N   -0.313887   -1.240385   -0.094503
 C   -5.730482   -0.736064   -0.356535
 C   -4.369858   -0.924915   -0.449632
 C    3.622811    0.026925   -0.032224
 N    2.352474   -0.363096    0.009926
 N    5.954764   -0.632485    0.177262
 C    7.007109   -1.619449    0.422639
 O   -7.647293    0.499570    0.369905
 C    6.330888    0.671011   -0.070722
 C    4.625227   -1.059962    0.208510
 C    5.438591    1.655625   -0.297747
 C    4.031738    1.346195   -0.279597
 F   -6.591623   -1.630173   -0.902800
 O    4.329887   -2.219236    0.417066
 H    3.274763    3.336536   -0.695751
 H    0.900025    2.614377   -0.610489
 H   -1.370393    1.867282   -0.016816
 H   -3.418773    1.858379    1.260976
 H   -5.883124    2.144022    1.392534
 H   -3.959443   -1.795241   -0.952412
 H    7.687236   -1.672031   -0.433235
 H    7.578616   -1.355093    1.318056
 H    6.530350   -2.585317    0.568459
 H   -8.047169   -0.253735   -0.087827
 H    7.405709    0.835534   -0.067009
 H    5.772462    2.669783   -0.489408
