50 
6b1e_ligand_ani.xyz
 O   -1.950736   -2.009920    0.823636
 C   -2.174784   -1.138744   -0.012033
 N   -3.424886   -0.673738   -0.272616
 C   -4.571516   -1.264612    0.425183
 C   -5.613910   -0.144637    0.419170
 C   -5.274482    0.653000   -0.841156
 C   -3.739336    0.622011   -0.890263
 C   -3.125684    1.812543   -0.163824
 N   -2.264277    1.755930    0.768190
 C   -0.954102   -0.471912   -0.654497
 N   -0.095580   -0.142564    0.499922
 C    1.365400    0.069090    0.255610
 C    1.587497    1.175288   -0.791427
 C    3.086780    1.446959   -0.968479
 C    3.697661    1.880309    0.372866
 C    3.499199    0.768585    1.414851
 C    1.998709    0.501586    1.585360
 C    4.181832   -0.514689    0.927085
 C    3.773610    0.160569   -1.443489
 C    3.573682   -0.954855   -0.409930
 O    4.136107   -2.181027   -0.856320
 C    2.075606   -1.204335   -0.228174
 H   -4.262246   -1.582510    1.425273
 H   -4.916837   -2.157873   -0.111257
 H   -5.498102    0.485350    1.308746
 H   -6.638536   -0.526010    0.411806
 H   -5.662702    1.675501   -0.826251
 H   -5.672718    0.152750   -1.729595
 H   -3.391972    0.650140   -1.932295
 H   -3.420643    2.780261   -0.591280
 H   -2.395144    0.907474    1.334448
 H   -1.194796    0.409393   -1.243117
 H   -0.453494   -1.199270   -1.296961
 H   -0.261203   -0.937478    1.157525
 H   -0.463864    0.731436    0.943740
 H    1.153672    0.864399   -1.750835
 H    1.065641    2.088929   -0.472354
 H    3.230135    2.239013   -1.714433
 H    4.768104    2.088191    0.246173
 H    3.222904    2.807471    0.719434
 H    3.930317    1.076113    2.375858
 H    1.493842    1.407435    1.949010
 H    1.838806   -0.292142    2.327806
 H    5.262236   -0.348166    0.802164
 H    4.058112   -1.323311    1.658665
 H    3.360955   -0.167869   -2.405957
 H    4.849696    0.335761   -1.591698
 H    5.082733   -2.030382   -0.984453
 H    1.939385   -2.021370    0.491695
 H    1.668971   -1.539999   -1.189994
