37 
6b1k_ligand_xtb.xyz
 C    2.619986    2.317752   -0.238365
 C    1.322292    1.876739   -0.242542
 C    1.071127    0.494041   -0.122945
 N   -2.445491   -0.268872   -0.082354
 C   -0.291660   -0.009025   -0.136008
 C   -1.484052    0.679672    0.019169
 N   -1.863628   -1.460488   -0.293871
 C   -3.836609   -0.146439   -0.003348
 C   -4.619799   -1.257891   -0.310906
 C   -5.992333   -1.177351   -0.246762
 C   -6.608202    0.016798    0.125806
 N   -0.607196   -1.316483   -0.321585
 C   -5.824331    1.121691    0.438232
 C   -4.445693    1.043072    0.376077
 C    3.304612    0.027944    0.008273
 N    2.044544   -0.386678   -0.000013
 N    5.646463   -0.543173    0.139544
 C    6.714333   -1.511372    0.268122
 O   -7.962564    0.054411    0.170454
 C    5.969107    0.771021    0.013728
 C    4.331568   -1.015557    0.155861
 C    5.041742    1.743694   -0.107742
 C    3.663824    1.386872   -0.113244
 O    4.109140   -2.199799    0.285745
 H    2.853794    3.369396   -0.333679
 H    0.503887    2.572278   -0.347183
 H   -1.694167    1.713279    0.188871
 H   -4.126276   -2.172995   -0.595060
 H   -6.611476   -2.027261   -0.482281
 H   -6.294865    2.049715    0.734638
 H   -3.858858    1.911039    0.631989
 H    7.349061   -1.500196   -0.619125
 H    7.320003   -1.297025    1.149630
 H    6.253942   -2.493247    0.372873
 H   -8.263990    0.930324    0.440900
 H    7.027309    0.990284    0.019201
 H    5.330722    2.777399   -0.202851
