43 
6b1w_ligand_dft.xyz
 N    4.886420    0.691983    1.565365
 C    4.132957    0.366718    0.600995
 C    3.820293   -1.096075    0.351640
 C    3.051583   -1.291966   -0.955853
 C    3.515555    1.329048   -0.403831
 N    2.126438    0.972698   -0.704362
 C    1.157080    1.907382   -0.711523
 O   -0.031342    1.691578   -0.936270
 C    1.786725   -0.419881   -0.973210
 C    0.764779   -0.909720    0.056292
 O    0.466321   -0.292038    1.060296
 N    0.170428   -2.126379   -0.238229
 N   -1.114480   -2.280613    0.264507
 C   -2.035107   -1.377722   -0.235458
 O   -1.867129   -0.877053   -1.330555
 C   -3.144938   -0.934039    0.706931
 C   -4.373797   -0.370927   -0.026254
 C   -4.088218    0.952689   -0.752356
 C   -3.376394    1.970120    0.130987
 N   -2.175312    1.348830    0.787404
 C   -2.528384    0.147393    1.609720
 H    5.013958    1.705016    1.626521
 H    3.237248   -1.473985    1.200005
 H    4.756379   -1.660817    0.342638
 H    3.673588   -1.030720   -1.818529
 H    2.771900   -2.341463   -1.083333
 H    4.110409    1.316091   -1.327160
 H    3.535795    2.350392   -0.016170
 H    1.529152    2.923472   -0.506592
 H    1.291558   -0.474063   -1.950884
 H    0.266900   -2.492044   -1.176982
 H   -1.147902   -2.569048    1.232589
 H   -3.443205   -1.763821    1.357801
 H   -4.743774   -1.105386   -0.746054
 H   -5.165757   -0.225191    0.718400
 H   -3.484308    0.762582   -1.640508
 H   -5.029124    1.403114   -1.081163
 H   -4.017868    2.328350    0.942074
 H   -3.015865    2.824388   -0.444525
 H   -1.450310    1.131446    0.069312
 H   -1.717794    2.037835    1.388204
 H   -1.609721   -0.184966    2.093845
 H   -3.251319    0.475163    2.361484
