40 
6b1y_ligand_ani.xyz
 O   -0.050084    2.052443   -0.760604
 C    1.092089    2.097707   -0.322514
 N    1.959896    1.056511   -0.312395
 C    3.042058    1.067763    0.674686
 C    4.133916    0.120254    0.248739
 N    5.326909    0.540063    0.153216
 C    3.632136   -1.270454   -0.037128
 C    2.562638   -1.189860   -1.124263
 C    1.433941   -0.241556   -0.716803
 C    0.554285   -0.815791    0.402395
 O    0.466409   -0.321995    1.512888
 N   -0.169741   -1.941316    0.047731
 N   -1.458443   -2.026808    0.606792
 C   -2.431406   -1.357683   -0.133771
 O   -2.398583   -1.383401   -1.350432
 C   -3.442043   -0.547108    0.674390
 C   -4.422614    0.149583   -0.273001
 C   -3.589267    1.319634   -0.830235
 N   -2.528064    1.607003    0.196721
 C   -2.736885    0.656461    1.330206
 H    1.521896    3.023055    0.100459
 H    2.663855    0.770034    1.663816
 H    3.458429    2.077372    0.735314
 H    5.933451   -0.224940   -0.156011
 H    3.195806   -1.683368    0.881890
 H    4.451733   -1.930932   -0.341449
 H    2.147859   -2.181051   -1.336716
 H    3.008298   -0.814135   -2.049882
 H    0.794846   -0.047318   -1.585007
 H   -0.204862   -2.161863   -0.940711
 H   -1.417364   -1.803565    1.595145
 H   -3.919018   -1.197249    1.415240
 H   -4.776147   -0.510966   -1.066047
 H   -5.292082    0.517664    0.285182
 H   -3.098234    1.027724   -1.756566
 H   -4.189884    2.212488   -1.017673
 H   -2.544028    2.587099    0.502398
 H   -1.593268    1.462236   -0.224457
 H   -3.389399    1.101141    2.086073
 H   -1.780804    0.418320    1.793518
