40 
6b2c_ligand_xtb.xyz
 O    4.078189   -2.064278    0.087266
 C    3.651844    1.527320   -0.279165
 C    2.613566    2.468706   -0.365983
 C    1.312406    2.037971   -0.347929
 N   -2.467111   -0.072482   -0.099602
 C    1.054236    0.655647   -0.248315
 C   -0.316161    0.168565   -0.248110
 N   -1.924563   -1.221589   -0.536451
 C   -1.479642    0.837513    0.089931
 C   -3.845646    0.053051    0.084937
 C   -4.409321    1.170969    0.691502
 C   -5.777547    1.261281    0.855781
 N   -0.670120   -1.089132   -0.618803
 C   -6.615692    0.239409    0.421895
 C   -6.022374   -0.873514   -0.177935
 C   -4.663648   -0.985529   -0.353784
 N    2.020704   -0.235676   -0.159115
 N    5.624202   -0.422354   -0.105921
 C    7.155895   -1.515471    1.474788
 C    6.681646   -1.408682    0.029232
 C    3.284335    0.169572   -0.169785
 C    4.306721   -0.881978   -0.049530
 C    5.954145    0.890077   -0.217648
 C    5.032361    1.872188   -0.302681
 F   -6.843857   -1.868410   -0.598486
 O   -7.951346    0.342318    0.588221
 H    2.853663    3.519701   -0.450210
 H    0.495676    2.739389   -0.425036
 H   -1.653026    1.831504    0.440695
 H   -3.788000    1.976274    1.047765
 H   -6.222758    2.123196    1.324713
 H   -4.231658   -1.857044   -0.817076
 H    7.534293   -0.558595    1.829888
 H    6.330232   -1.823639    2.110936
 H    7.948165   -2.255043    1.549825
 H    7.508522   -1.131242   -0.629509
 H    6.265175   -2.366156   -0.291949
 H    7.013524    1.103283   -0.238099
 H    5.327920    2.904530   -0.393262
 H   -8.386289   -0.448712    0.239831
