49 
6b3v_ligand_ani.xyz
 C    7.104630   -0.002795   -0.100627
 C    6.477616   -1.225063   -0.401208
 C    5.113197   -1.264423   -0.356491
 C    2.294025   -1.100531    0.531676
 C   -5.482208   -0.122593    1.388880
 C   -8.450690   -0.928305   -0.482301
 C   -7.656862    0.229915    0.135021
 C   -7.952796    1.540428   -0.605321
 C   -6.168781   -0.068410    0.174128
 C   -5.446902   -0.293324   -1.000893
 C   -4.087447   -0.575338   -0.956421
 C   -3.406637   -0.643117    0.259333
 C   -1.927351   -0.924409    0.289959
 C   -1.080805    0.342398    0.108254
 C    1.070505    1.312720   -0.427973
 C    2.438943    1.297039    0.232550
 C    4.449729   -0.059196   -0.019240
 C    8.545481    0.101550   -0.121179
 C    0.930088   -1.126815   -0.143937
 C   -4.120374   -0.403891    1.431507
 N    0.278191    0.168276    0.009412
 N    3.076284    0.007652    0.007588
 N    5.118631    1.074480    0.230468
 N    6.436176    1.101399    0.206203
 N    9.700599    0.149790   -0.149340
 O   -1.591822    1.448036    0.067800
 H    7.065664   -2.104566   -0.652166
 H    4.560199   -2.164277   -0.606755
 H    2.805392   -2.046700    0.353255
 H    2.165084   -1.001473    1.621500
 H   -6.027897    0.056222    2.314224
 H   -9.522534   -0.699148   -0.487877
 H   -8.142501   -1.109285   -1.518639
 H   -8.301538   -1.857539    0.077559
 H   -7.993617    0.349382    1.172609
 H   -7.454684    2.390301   -0.127137
 H   -7.607691    1.491517   -1.644771
 H   -9.030815    1.738264   -0.619614
 H   -5.944675   -0.250976   -1.968320
 H   -3.540648   -0.742257   -1.881640
 H   -1.670056   -1.631983   -0.509839
 H   -1.648154   -1.391996    1.244952
 H    1.183200    1.298079   -1.523033
 H    0.520979    2.217489   -0.162599
 H    2.347074    1.491931    1.312581
 H    3.076241    2.079014   -0.185833
 H    0.319979   -1.903333    0.322626
 H    1.052506   -1.380258   -1.208007
 H   -3.606268   -0.438887    2.389907
