107 
6b41_ligand_ani.xyz
 O   -6.347524   -0.382053    0.103926
 C   -6.326020   -0.322590   -1.111150
 O   -7.157773    0.442396   -1.847207
 C   -8.084410    1.209790   -1.083373
 N   -5.449724   -0.979838   -1.931510
 C   -4.661444   -2.082124   -1.414989
 C   -4.995126   -3.435903   -2.058148
 C   -3.732756   -4.264222   -1.814150
 C   -2.619027   -3.258804   -2.122791
 C   -3.123416   -1.909749   -1.551590
 C   -2.409940   -1.460460   -0.218751
 C   -0.993095   -1.205936   -0.611148
 N    0.073874   -0.965833   -0.989973
 C   -2.464355   -2.568216    0.867796
 C   -3.560043   -2.689813    1.736359
 C   -3.581104   -3.703811    2.683006
 F   -4.639526   -3.796735    3.511412
 C   -2.559304   -4.629682    2.809676
 C   -1.475608   -4.513056    1.949304
 C   -1.426236   -3.499548    0.993178
 C   -2.969604   -0.096993    0.323682
 C   -2.990813    1.038947   -0.707965
 C   -3.631861    2.287521   -0.111598
 C   -2.193210    0.414285    1.549294
 C   -2.832870    1.672624    2.119375
 N   -2.867650    2.775808    1.094066
 C   -3.402664    4.070179    1.637421
 C   -2.405610    5.232824    1.562105
 C   -1.012711    4.923719    2.158329
 C   -1.716069    5.406029    0.188644
 N   -0.457215    5.023810    0.814580
 C    0.518613    4.217445    0.276382
 C    1.481054    3.624279    1.108936
 C    2.476941    2.829548    0.566272
 C    0.585490    4.012274   -1.110665
 C    1.577306    3.207170   -1.645809
 C    2.511150    2.611471   -0.806089
 S    3.787696    1.609010   -1.520792
 O    4.959694    1.679827   -0.645474
 O    3.886414    1.969950   -2.931977
 C    3.152739   -0.082421   -1.435566
 C    4.151143   -1.090225   -2.043239
 N    4.289667   -1.689135   -0.705817
 C    3.322761   -0.785362   -0.078737
 C    5.397773   -2.193246   -0.104119
 O    5.558765   -2.121286    1.113118
 C    6.427321   -2.843851   -1.021299
 C    7.845429   -2.793080   -0.441773
 C    8.342453   -1.366987   -0.170547
 N    7.973960   -0.892139    1.196583
 C    8.994008   -1.268171    2.193628
 C    7.753857    0.562963    1.230763
 H   -7.554558    1.890630   -0.412136
 H   -8.726107    0.557784   -0.486495
 H   -8.672503    1.770012   -1.809381
 H   -5.719709   -1.002111   -2.905620
 H   -4.910563   -2.134835   -0.354408
 H   -5.140207   -3.294842   -3.139603
 H   -5.913871   -3.871254   -1.648842
 H   -3.675174   -4.556829   -0.758868
 H   -3.679667   -5.169164   -2.428076
 H   -1.646689   -3.573101   -1.729352
 H   -2.496481   -3.160758   -3.208242
 H   -2.918798   -1.125432   -2.288158
 H   -4.420209   -2.019901    1.700919
 H   -2.623103   -5.407245    3.563606
 H   -0.652889   -5.218451    2.020497
 H   -0.552234   -3.430562    0.348930
 H   -4.011598   -0.267065    0.614279
 H   -1.970963    1.277568   -1.037004
 H   -3.566024    0.755490   -1.592875
 H   -3.674022    3.089991   -0.855195
 H   -4.658991    2.073613    0.207151
 H   -2.143062   -0.351355    2.329951
 H   -1.160333    0.645268    1.261129
 H   -3.863226    1.467134    2.438441
 H   -2.277619    2.018218    2.996950
 H   -1.890277    2.930748    0.791439
 H   -3.697162    3.903539    2.679124
 H   -4.308209    4.322200    1.075759
 H   -2.881620    6.135329    1.953935
 H   -0.605635    5.667509    2.853860
 H   -0.926983    3.927227    2.619125
 H   -2.074000    4.713515   -0.587902
 H   -1.704677    6.419312   -0.229402
 H    1.449744    3.805425    2.179988
 H    3.237638    2.392006    1.205777
 H   -0.134673    4.497021   -1.764121
 H    1.647522    3.046555   -2.717812
 H    2.145387   -0.096580   -1.843280
 H    3.736028   -1.776907   -2.787082
 H    5.064192   -0.619272   -2.428182
 H    2.420703   -1.298873    0.264523
 H    3.749713   -0.170208    0.720263
 H    6.397897   -2.353139   -2.000382
 H    6.123506   -3.884418   -1.190759
 H    8.523431   -3.290238   -1.143172
 H    7.868403   -3.361129    0.496985
 H    7.897898   -0.674410   -0.895107
 H    9.430920   -1.288037   -0.282540
 H    7.088940   -1.356177    1.446785
 H    9.953393   -0.799128    1.941521
 H    9.128288   -2.351358    2.217909
 H    8.684912   -0.924556    3.183593
 H    8.666116    1.096224    0.933111
 H    7.477408    0.872576    2.241617
 H    6.950957    0.818615    0.538297
