35 
6b4d_ligand_xtb.xyz
 O    5.407622    0.034125   -0.088666
 C    4.455923    0.761527    0.030721
 O    4.622147    2.090168    0.195531
 C    3.063950    0.308501    0.012626
 C    1.870549    1.013954    0.137927
 N    2.714742   -0.996867   -0.141315
 C    3.580539   -2.125594   -0.311737
 N    1.410076   -1.162159   -0.120537
 C    0.858468    0.042491    0.048205
 C   -0.565203    0.238828    0.122541
 C   -1.227315    1.435007    0.247236
 C   -1.577474   -0.774341    0.090625
 C   -1.543778   -2.162386   -0.017108
 C   -2.737775   -2.847930   -0.012380
 C   -3.959887   -2.179369    0.099390
 C   -4.020416   -0.806833    0.207833
 C   -2.819388   -0.106698    0.202773
 N   -2.573749    1.237562    0.306565
 C   -3.567539    2.275015    0.360591
 C   -4.106377    2.611460   -1.029819
 H    3.778185    2.552153    0.281032
 H    1.728231    2.067919    0.275757
 H    4.213082   -1.991253   -1.189696
 H    4.229632   -2.243523    0.556808
 H    2.950201   -3.004283   -0.431578
 H   -0.827863    2.430219    0.306821
 H   -0.595223   -2.667210   -0.101471
 H   -2.738724   -3.924946   -0.095608
 H   -4.875828   -2.752112    0.100309
 H   -4.969889   -0.299182    0.294431
 H   -3.114092    3.163243    0.809419
 H   -4.385714    1.943457    1.006962
 H   -3.299631    2.951995   -1.674788
 H   -4.558340    1.731800   -1.481309
 H   -4.855344    3.395847   -0.961553
