43 
6b59_ligand_ani.xyz
 C   -1.967646   -0.809012   -0.913498
 C   -3.309774   -1.559753   -0.928756
 C   -4.423683   -1.166805    1.329191
 C   -5.922778    0.231312    0.828739
 C   -5.271442   -0.060126   -0.361368
 C   -6.979757    1.158327    0.742646
 C    4.883990   -0.788316    1.031292
 C    3.647722   -1.396064    0.840694
 C    2.842066   -1.057567   -0.248485
 C    3.293912   -0.084845   -1.145840
 C    4.526306    0.530647   -0.971690
 C    5.315882    0.164511    0.114929
 C    1.487702   -1.696779   -0.438146
 C    0.325062   -0.785313   -0.027421
 C   -6.570664    1.301797   -1.509534
 N   -0.954397   -1.431982   -0.251540
 N   -4.289782   -0.968231   -0.030026
 N   -5.377421   -0.474004    1.884755
 N   -7.289098    1.689385   -0.445498
 N   -5.561631    0.442382   -1.565505
 N   -7.699292    1.506236    1.832816
 N    7.933437   -0.055336   -0.549964
 O   -1.834387    0.268414   -1.466129
 O    6.872890    2.214351   -0.337776
 O    7.274256    0.781683    1.730968
 S    6.903245    0.923679    0.331862
 H   -3.180561   -2.618393   -0.679042
 H   -3.715249   -1.487471   -1.941872
 H   -3.786956   -1.867688    1.858117
 H    5.509254   -1.040311    1.882940
 H    3.305117   -2.147502    1.548167
 H    2.666080    0.193724   -1.989990
 H    4.873178    1.295852   -1.659718
 H    1.432037   -2.622150    0.149783
 H    1.345464   -1.974557   -1.489619
 H    0.318323    0.132322   -0.620571
 H    0.429026   -0.498525    1.027511
 H   -6.858511    1.756232   -2.454448
 H   -1.121336   -2.321249    0.193300
 H   -7.387350    1.203142    2.742017
 H   -8.361562    2.261059    1.755603
 H    8.369919    0.479436   -1.293574
 H    8.615028   -0.489606    0.063314
