45 
6b5j_ligand_dft.xyz
 C   -2.419137    1.188943   -0.245868
 C    0.861277   -0.610020   -0.099341
 C    3.845977   -0.179549    0.810510
 C    6.088881   -0.918721   -0.663330
 C    4.955196   -1.716581   -0.683163
 C    7.301360    1.164604    0.036892
 C   -6.734126    0.279822    2.139070
 N   -6.402917   -0.737001    1.147987
 S   -6.182815   -0.256395   -0.429637
 O   -7.353779    0.518407   -0.800943
 O   -5.774250   -1.450054   -1.147352
 C   -4.793229    0.871698   -0.390993
 C   -5.030396    2.239498   -0.348232
 C   -3.931233    3.089496   -0.259662
 C   -2.645786    2.573265   -0.203457
 N   -1.083272    0.766419   -0.209904
 C   -0.534561   -0.484676   -0.063304
 C    1.372581   -1.894116    0.059092
 N    2.709795   -2.206209    0.037162
 C    3.818793   -1.351988    0.046931
 C    4.975950    0.625851    0.810365
 C    6.100715    0.262442    0.074837
 F    7.218090    2.059136   -0.965598
 F    7.434732    1.866618    1.175191
 F    8.438804    0.474371   -0.149357
 N    0.569718   -2.968335    0.207048
 C   -0.728099   -2.717011    0.218488
 N   -1.340398   -1.539234    0.110078
 C   -3.513770    0.326501   -0.346425
 H    1.501393    0.244672   -0.281599
 H    2.996194    0.082553    1.430821
 H    6.965207   -1.213325   -1.230454
 H    4.941048   -2.627357   -1.274578
 H   -5.915670    0.989440    2.325456
 H   -7.612691    0.826594    1.792478
 H   -6.989698   -0.226540    3.072366
 H   -5.671460   -1.385096    1.420912
 H   -6.043940    2.619568   -0.403373
 H   -4.076855    4.164678   -0.232983
 H   -1.800034    3.252973   -0.127043
 H   -0.408552    1.512495   -0.287006
 H    2.880109   -3.199951   -0.033051
 H    4.990857    1.529360    1.410459
 H   -1.381139   -3.579207    0.334310
 H   -3.362994   -0.742727   -0.399352
