19 
6b7a_ligand_xtb.xyz
 C   -9.604785  -31.493312   32.800394
 C  -10.496166  -31.248384   31.753282
 C  -10.518251  -30.049584   31.076322
 C   -7.858838  -25.946677   31.553313
 C   -8.694097  -30.537199   33.211786
 C   -8.710474  -29.324253   32.533410
 C   -9.609796  -29.072402   31.473953
 C   -8.431626  -27.305279   31.713438
 N   -7.970986  -28.175953   32.662702
 N   -9.396093  -27.803751   30.998281
 O   -7.799311  -30.728073   34.231289
 H   -9.625182  -32.451773   33.302040
 H  -11.184836  -32.032008   31.474772
 H  -11.206353  -29.863637   30.268876
 H   -8.376614  -25.437843   30.746789
 H   -7.974363  -25.373152   32.472473
 H   -6.796938  -26.006529   31.316713
 H   -7.236424  -28.023633   33.332520
 H   -7.916865  -31.614559   34.591647
