23 
6b7b_ligand_xtb.xyz
 C  -29.216903   11.775071   34.988107
 C  -28.391768   11.154998   34.023119
 C  -24.239593   11.157772   34.753217
 C  -31.820605   10.729469   32.662233
 C  -28.683043   12.359489   36.128720
 C  -27.007049   11.120822   34.203417
 C  -29.256486   10.669509   33.003778
 C  -30.533812   10.993633   33.359948
 C  -27.318349   12.316526   36.290445
 C  -26.481480   11.703858   35.339277
 N  -30.510614   11.661407   34.557666
 O  -25.145744   11.746279   35.649250
 H  -23.252609   11.303518   35.190215
 H  -24.427321   10.084832   34.635776
 H  -24.273708   11.639752   33.769957
 H  -32.490495   10.147203   33.295688
 H  -32.322302   11.664336   32.409919
 H  -31.638630   10.175002   31.746384
 H  -29.314807   12.832453   36.866006
 H  -26.387123   10.645622   33.460086
 H  -28.961029   10.144407   32.117113
 H  -26.848995   12.754251   37.156897
 H  -31.320532   12.011789   35.039780
