35 
6b7c_ligand_dft.xyz
 C   37.281640   99.491468  192.370215
 C   35.232035   99.833284  191.619213
 C   40.388092  100.096794  191.969620
 C   39.997006  101.301153  191.425602
 C   41.152428  101.806339  190.787437
 C   42.562998   98.836309  191.990980
 C   41.308340  103.083270  190.023327
 C   39.631516   99.078509  192.774412
 C   31.938574  100.204707  190.193080
 C   35.960393   98.956125  190.792142
 C   33.362781   99.756384  190.389798
 C   33.984077   98.880715  189.488590
 C   35.302166   98.463639  189.675798
 N   41.697011   99.941570  191.652582
 N   42.178170  100.975561  190.930747
 N   38.345292   99.566432  193.238061
 N   36.116636  100.177365  192.630358
 N   37.242840   98.764195  191.284524
 N   33.990438  100.247209  191.474469
 H   39.010577  101.741864  191.454754
 H   43.526735   99.029655  191.521299
 H   42.699392   98.759025  193.075183
 H   42.157471   97.892995  191.611824
 H   42.334318  103.173491  189.658675
 H   40.630967  103.114959  189.163131
 H   41.086043  103.953067  190.651155
 H   39.436856   98.181390  192.179111
 H   40.215679   98.772366  193.650522
 H   31.888106  101.295924  190.118642
 H   31.502345   99.774450  189.287441
 H   31.322801   99.908953  191.048939
 H   33.422806   98.523629  188.630989
 H   35.790539   97.785513  188.983598
 H   38.401255  100.430958  193.760315
 H   35.883676  100.704734  193.456467
