30 
6b7d_ligand_dft.xyz
 C   -0.506652   -0.099821    0.010450
 C    0.981916   -0.103205    0.000074
 C   -1.284921    1.076801    0.168330
 C    3.104663    0.761719   -0.797805
 C   -3.140998   -0.378374   -0.068912
 C   -3.610474    2.094075    0.231197
 C    3.766569   -0.196916   -0.040593
 C   -4.953804   -1.872404   -0.288886
 C    3.061161   -1.118765    0.725341
 C    1.673281   -1.068825    0.736699
 C    1.714984    0.800556   -0.773024
 C   -2.659621    0.937069    0.099340
 C   -0.676712    2.426958    0.448348
 N   -1.051002   -1.304078   -0.123718
 N   -2.369976   -1.447017   -0.152257
 O   -4.472553   -0.542658   -0.126771
Cl    5.514561   -0.248991   -0.057474
 H    3.667749    1.461764   -1.405094
 H   -3.702139    2.405453    1.279051
 H   -3.260719    2.959436   -0.339751
 H   -4.604636    1.819667   -0.122522
 H   -4.575615   -2.315158   -1.214196
 H   -4.649228   -2.503435    0.550276
 H   -6.039753   -1.780339   -0.323866
 H    3.592945   -1.866207    1.303727
 H    1.109386   -1.791644    1.316527
 H    1.198658    1.534487   -1.384550
 H    0.338791    2.338563    0.837586
 H   -0.635241    3.042095   -0.458973
 H   -1.276820    2.973886    1.181483
