36 
6b7f_ligand_ani.xyz
 C   -1.818189    2.979984   -0.561665
 C   -3.021452    2.516527   -0.027096
 C   -3.152147    1.180850    0.321493
 C    0.882646   -2.662614   -0.542998
 C   -0.928216   -1.862217   -2.078903
 C    1.060272   -0.096777    1.772191
 C    3.127736    0.357108    1.559595
 C    2.632081    0.298834    0.280431
 C    3.280961    0.475232   -1.018006
 C    4.347637    1.245871   -1.221796
 C    0.279947   -0.191305   -0.616772
 C   -0.756232    2.104472   -0.750912
 C   -0.885259    0.754303   -0.422927
 C   -2.085932    0.302774    0.123271
 C   -2.243469   -1.122841    0.555029
 C   -0.237758   -1.650109   -0.730744
 N    1.287031   -0.003036    0.431426
 N    2.147470    0.109093    2.480830
 O   -3.214659   -1.548038    1.123105
 O   -1.178181   -1.936650    0.335269
 H   -1.709958    4.027810   -0.830384
 H   -3.851451    3.201498    0.123542
 H   -4.068352    0.791273    0.752528
 H    1.369273   -2.535928    0.427334
 H    1.639008   -2.540941   -1.327019
 H    0.470344   -3.672754   -0.608652
 H   -1.387349   -2.854340   -2.105262
 H   -1.702020   -1.113333   -2.278041
 H   -0.184971   -1.799632   -2.880627
 H    0.078662   -0.315556    2.171807
 H    4.149818    0.543133    1.861988
 H    2.856534   -0.071962   -1.859924
 H    4.796732    1.824576   -0.418814
 H    4.794221    1.332128   -2.207457
 H    0.772427    0.070260   -1.553116
 H    0.182551    2.468322   -1.161820
