36 
6b7f_ligand_dft.xyz
 C   -2.034009    2.861553   -0.706447
 C   -3.196425    2.333925   -0.143436
 C   -3.225965    1.009809    0.269773
 C    1.047852   -2.579245   -0.467354
 C   -0.790706   -1.918801   -2.046299
 C    0.999830    0.171701    1.793377
 C    3.079770    0.546884    1.567504
 C    2.604281    0.365130    0.290513
 C    3.286773    0.392437   -0.997686
 C    4.348215    1.157636   -1.262309
 C    0.282275   -0.154545   -0.602645
 C   -0.906585    2.063847   -0.862338
 C   -0.934136    0.731445   -0.458994
 C   -2.094630    0.207448    0.111562
 C   -2.137111   -1.197493    0.610776
 C   -0.129077   -1.641265   -0.693862
 N    1.248160    0.117524    0.453386
 N    2.079617    0.426577    2.492572
 O   -3.048029   -1.638236    1.265513
 O   -1.062708   -1.974673    0.357432
 H   -2.007875    3.899046   -1.025331
 H   -4.075355    2.959239   -0.023784
 H   -4.110394    0.576372    0.724125
 H    1.480180   -2.432999    0.524864
 H    1.825275   -2.406570   -1.218531
 H    0.708033   -3.614726   -0.551802
 H   -1.181833   -2.939400   -2.054724
 H   -1.616189   -1.229733   -2.247157
 H   -0.057821   -1.821338   -2.853713
 H    0.009772    0.024903    2.201569
 H    4.103955    0.735555    1.859578
 H    2.928499   -0.287283   -1.770312
 H    4.734873    1.864494   -0.533566
 H    4.864320    1.092243   -2.214476
 H    0.781133    0.097098   -1.542088
 H    0.002780    2.474874   -1.292716
