43 
6b7h_ligand_dft.xyz
 O    0.535066    0.876759    2.018294
 C    1.144289   -0.058510   -1.207107
 O    3.957798   -2.863703    0.568263
 C    2.023162   -1.023272   -0.426330
 C    2.381498    1.193781    0.507496
 N   -0.224257   -0.203119   -0.774415
 C    4.443363   -1.989088   -0.327141
 C    3.509794   -0.846356   -0.565873
 C    2.771859   -0.260046    0.630268
 C    1.397959    1.598112    1.607580
 O   -0.898736    1.247994   -2.363269
 C   -1.199607    0.519298   -1.428014
 C   -2.593233    0.365276   -0.920348
 C   -2.984556   -0.736503   -0.165592
 C   -4.300705   -0.843556    0.293177
 O   -4.578505   -1.955512    1.008983
 C   -5.903929   -2.144481    1.465651
 C   -5.219755    0.163457   -0.009732
 C   -4.817603    1.256810   -0.776433
 C   -3.515534    1.366518   -1.239154
 C    1.739064    1.341518   -0.895771
 O    5.512717   -2.091094   -0.868535
 N    3.602349    2.101049    0.610496
 O    1.613724    2.860551    2.010580
 H    1.179579   -0.232311   -2.285035
 H    4.610149   -3.577430    0.665168
 H    1.646011   -2.017068   -0.212972
 H   -0.396120   -0.504180    0.174779
 H    3.883831   -0.193868   -1.350444
 H    2.944928   -0.685038    1.613334
 H   -2.309354   -1.558322    0.050969
 H   -6.203222   -1.352602    2.163037
 H   -5.906372   -3.102068    1.985848
 H   -6.612892   -2.183968    0.630028
 H   -6.246031    0.102518    0.333159
 H   -5.543062    2.027851   -1.015600
 H   -3.199603    2.205660   -1.848424
 H    2.508976    1.600264   -1.631922
 H    0.973706    2.116963   -0.949486
 H    4.294752    1.833211   -0.096696
 H    3.345938    3.084692    0.472829
 H    4.051985    2.032351    1.529331
 H    0.937245    3.100134    2.668943
