43 
6b7h_ligand_ani.xyz
 O    0.365927    2.300374   -0.239458
 C    1.125902   -0.869196   -0.826467
 O    3.829792   -1.192252    2.581900
 C    1.964392   -0.830009    0.448293
 C    2.484766    1.214928   -0.808163
 N   -0.265441   -0.584657   -0.551871
 C    4.285988   -1.527792    1.349079
 C    3.456494   -0.956028    0.251318
 C    2.811940    0.401482    0.448649
 C    1.556219    2.370601   -0.439631
 O   -1.024953   -2.555984   -1.393892
 C   -1.248114   -1.474315   -0.865668
 C   -2.648760   -1.044316   -0.538587
 C   -2.944374   -0.091715    0.429958
 C   -4.272572    0.257840    0.682212
 O   -4.457826    1.204340    1.640659
 C   -5.782145    1.606690    1.909499
 C   -5.304213   -0.349903   -0.033286
 C   -4.995588   -1.319364   -0.987312
 C   -3.680535   -1.675736   -1.235894
 C    1.773325    0.205483   -1.741573
 O    5.262819   -2.222002    1.196032
 N    3.735367    1.837709   -1.415391
 O    2.230642    3.536883   -0.326123
 H    1.143390   -1.861441   -1.286762
 H    4.436679   -1.615191    3.211036
 H    1.550087   -1.226476    1.370361
 H   -0.490988    0.368529   -0.293077
 H    3.821821   -1.246127   -0.729505
 H    3.054739    0.916385    1.375022
 H   -2.174750    0.384525    1.034660
 H   -6.258366    2.040883    1.020597
 H   -5.714415    2.365395    2.690424
 H   -6.392075    0.767723    2.269377
 H   -6.340485   -0.084638    0.144780
 H   -5.801867   -1.800194   -1.536532
 H   -3.422351   -2.440385   -1.961835
 H    2.513167   -0.271132   -2.396689
 H    1.019488    0.676792   -2.381279
 H    4.566390    1.304290   -1.118655
 H    3.666559    1.853778   -2.448177
 H    3.807159    2.808222   -1.062743
 H    1.578770    4.204919   -0.057672
