37 
6b8y_ligand_ani.xyz
 C    3.860758    7.456511    2.753322
 C    1.771393    6.533733    3.375998
 C    1.433616    6.432642    2.043146
 C    6.389939   10.658122    3.836489
 C    7.177749   11.560990    3.140878
 C    8.315156   12.078377    3.752002
 C    8.594969   11.655736    5.045526
 C    9.816121   12.173018    5.781739
 C    6.773368   10.306253    5.135441
 C    2.997188    7.070635    3.776676
 C    4.358677    7.627065    7.203661
 C    5.381761    8.368476    7.820208
 N    6.201427    9.226843    7.216981
 C    5.958232    9.341853    5.916639
 N    5.035380    8.679389    5.188017
 C    4.234674    7.829775    5.814704
 C    3.734682    6.838233    8.231834
 C    4.391888    7.130442    9.393518
 N    5.386367    8.053682    9.147262
 N    3.260067    7.136540    5.140529
 C    3.435541    7.315756    1.437425
 N    2.253622    6.822599    1.065194
 F    0.914572    6.108892    4.333046
 N    7.854048   10.799720    5.736043
 F    9.479007   12.784817    6.925377
 F   10.661429   11.179711    6.091996
 F   10.496197   13.061686    5.032157
 H    4.843791    7.843253    2.990079
 H    0.465250    6.018339    1.766269
 H    5.489523   10.231186    3.402635
 H    6.909883   11.859394    2.131468
 H    8.964925   12.786357    3.249842
 H    2.914989    6.138895    8.131386
 H    4.235133    6.753762   10.395016
 H    6.027111    8.448406    9.816903
 H    2.582497    6.652292    5.712243
 H    4.097071    7.622617    0.629353
