31 
6b95_ligand_ani.xyz
 C   -4.844190   -0.763565   -0.373511
 C   -3.267069    0.937022   -0.915077
 C    1.443065    0.777286    0.192662
 C    2.753596   -1.327503    0.185276
 C    1.561875    2.173865    0.279468
 C    0.426204    2.968441    0.278881
 C   -0.829838    2.379851    0.174987
 C   -0.964586    0.994116    0.092886
 C   -2.312752    0.381539   -0.054951
 C   -2.701073   -0.770152    0.631467
 C   -3.948076   -1.357419    0.499019
 C   -4.525415    0.377463   -1.090788
 C    0.185876    0.199446    0.118421
 C    4.189072   -1.846459    0.233801
 F   -1.832408   -1.348670    1.485810
 F   -6.057510   -1.313666   -0.527127
 N    2.638528    0.030856    0.192445
 O    2.829654    2.676692    0.363018
 O    1.818563   -2.109626    0.173370
 S    5.279512   -1.022964   -0.978620
 H   -3.006731    1.824660   -1.485193
 H    0.517380    4.051202    0.346101
 H   -1.715894    3.009196    0.175034
 H   -4.202443   -2.252685    1.054115
 H   -5.254571    0.813884   -1.764414
 H    0.116542   -0.878731    0.066542
 H    4.132981   -2.917733    0.041384
 H    4.593563   -1.693654    1.240856
 H    3.484546    0.585615    0.156193
 H    2.783415    3.638426    0.423447
 H    6.432724   -1.347838   -0.377739
