37 
6b97_ligand_ani.xyz
 C   -2.675336    1.103966    0.156205
 C   -1.869640   -0.061442    0.245141
 N   -4.628504    2.075233   -0.193308
 C    1.754424   -0.712810    0.263460
 C    3.836688   -0.905974   -0.961667
 C    3.665183    0.636521    0.886811
 C    2.345417    0.252448    1.082755
 C    5.831323    0.497051   -0.343920
 C    0.192522   -1.983110    1.787131
 C   -2.596987    2.523058    0.280664
Cl   -4.361916   -2.906979   -0.485203
 C   -3.724582   -1.305920   -0.236239
 N   -4.596250   -0.331605   -0.358091
 C   -4.020374    0.867998   -0.149311
 C   -6.016844    2.339364   -0.476924
 N   -3.769940    3.084483    0.069470
 N   -2.421976   -1.266441    0.049745
 N   -0.553570    0.011307    0.533298
 C    0.324626   -1.157800    0.503639
 C    4.409922    0.058586   -0.140440
 F    6.437793   -0.167886   -1.342794
 F    6.568441    0.310889    0.769152
 F    5.904649    1.811394   -0.634395
 C    2.515467   -1.286443   -0.754838
 H    4.421398   -1.356731   -1.758444
 H    4.120319    1.392002    1.519245
 H    1.774365    0.704705    1.891751
 H   -0.843638   -2.305392    1.920953
 H    0.492776   -1.387839    2.657093
 H    0.834250   -2.868058    1.729824
 H   -1.748241    3.151176    0.517854
 H   -6.501918    1.384081   -0.685331
 H   -6.489659    2.817936    0.384011
 H   -6.098535    2.997474   -1.345013
 H   -0.117808    0.920625    0.462742
 H    0.004005   -1.786853   -0.334434
 H    2.068146   -2.037855   -1.402068
