21 
6b98_ligand_ani.xyz
 C   -0.686596    3.396341   -0.000644
 C   -2.345367    0.291743    0.000953
 N   -0.797354   -2.639899   -0.006715
 C   -0.258767   -1.408777   -0.003720
Cl    3.396088   -0.166598    0.002677
 C    1.654393   -0.153170   -0.000861
 N    1.110541    1.046995   -0.000822
 C   -0.228144    0.966227   -0.001352
 N    1.088161   -1.355703   -0.002754
 C   -2.210595   -2.947973    0.005335
 C   -1.005977   -0.199294   -0.001878
 N   -2.369208    1.610179    0.001936
 N   -1.083327    2.010191    0.000081
 H   -0.080802    3.608396    0.885053
 H   -0.075176    3.605161   -0.883252
 H   -1.589518    4.006400   -0.004480
 H   -3.280736   -0.253281    0.003814
 H   -0.113374   -3.381977    0.001286
 H   -2.705053   -2.555941    0.902494
 H   -2.721457   -2.536676   -0.873373
 H   -2.322748   -4.032823   -0.006137
