25 
6ba7_ligand_ani.xyz
 C   -1.300193   -1.402766    0.674787
 C   -1.687828    0.851862   -0.014205
 C    2.832034   -0.981671   -0.467122
 C    2.916068    0.416708    0.134387
 C    1.529366    1.031575    0.163608
 C    0.601979    0.148034    0.971816
 C   -0.812331   -0.103159    0.518689
 C   -2.572836   -1.766257    0.264256
 C   -3.404724   -0.801505   -0.298844
 C   -2.965997    0.515108   -0.430063
 O    4.035344   -1.580459   -0.533730
 O    1.816845   -1.510137   -0.847931
 O    3.755185    1.238494   -0.642852
 O    1.022072   -0.411400    1.965510
 O   -4.662505   -1.070553   -0.731039
Cl   -1.237417    2.531710   -0.130290
 H   -0.645751   -2.140107    1.127368
 H    3.285254    0.310398    1.165607
 H    1.154071    1.164010   -0.855437
 H    1.589505    2.019111    0.631244
 H   -2.919149   -2.790807    0.386476
 H   -3.631229    1.260415   -0.851839
 H    3.881154   -2.457308   -0.925279
 H    4.628949    0.826177   -0.655117
 H   -4.855460   -2.006099   -0.591613
