15 
6bau_ligand_dft.xyz
 N   -0.032113    1.582326    0.268153
 C    0.219956    0.117509    0.464250
 C    1.658465   -0.114221   -0.000221
 O    2.091334   -1.307989    0.349501
 C   -0.769786   -0.712156   -0.371208
 S   -2.493824   -0.240260    0.031118
 O    2.251882    0.721576   -0.637821
 H   -1.043244    1.731806    0.102585
 H    0.252555    2.140625    1.078135
 H    0.537921    1.900410   -0.532961
 H    0.109792   -0.108374    1.527301
 H    2.994591   -1.442392    0.009903
 H   -0.598607   -1.765273   -0.141292
 H   -0.580783   -0.561762   -1.437810
 H   -2.943790   -0.182656   -1.231190
