52 
6baw_ligand_ani.xyz
 C    1.660501    3.480662   -0.414193
 C   -0.217146    2.180553   -0.901243
 C   -1.524380    1.667319   -0.387344
 C   -2.616189    2.547243   -0.352809
 C   -3.859501    2.119447    0.070890
 C   -4.047354    0.787833    0.448256
 C   -2.968003   -0.133219    0.387322
 C   -3.290201   -1.553888    0.670208
 C   -2.565367   -3.808224    0.510561
 C   -1.678686    0.349115    0.043271
 C   -0.420989   -0.496244    0.128709
 C   -0.134431   -1.271248   -1.174458
 C    1.001734   -2.229045   -1.034402
 C    2.172568   -3.989051   -0.685995
 C    3.067748   -2.965414   -0.826974
 C    2.848638   -0.493584   -1.208392
 C    3.482145    0.075002    0.049650
 C    4.493166    1.031089   -0.067555
 C    5.039641    1.632899    1.064159
 C    4.585129    1.279721    2.331292
 C    3.587938    0.317126    2.457924
 C    3.044175   -0.283797    1.325516
 N    0.888112   -3.522281   -0.812253
 N    2.312705   -1.834459   -1.047775
 O    0.356977    3.026137   -0.037724
 O    0.293754    1.856842   -1.951169
 O   -2.400175    3.823601   -0.755264
 O   -5.275157    0.453542    0.849075
 O   -4.366185   -1.952378    1.102344
 O   -2.306954   -2.408056    0.387778
 H    2.372828    2.649705   -0.411252
 H    1.635660    3.934036   -1.408196
 H    1.942786    4.216113    0.339338
 H   -4.710692    2.793150    0.115040
 H   -2.752571   -4.074022    1.555081
 H   -3.429862   -4.099840   -0.093052
 H   -1.651889   -4.279799    0.141267
 H   -0.509293   -1.186923    0.968738
 H    0.430189    0.159624    0.345261
 H    0.048062   -0.551965   -1.981442
 H   -1.011473   -1.864155   -1.443695
 H    2.374836   -5.037153   -0.504528
 H    4.145962   -2.924126   -0.788070
 H    3.597574   -0.514931   -2.008031
 H    2.039574    0.156621   -1.551488
 H    4.843328    1.331987   -1.054535
 H    5.821806    2.379977    0.953634
 H    5.009597    1.750484    3.214091
 H    3.228596    0.029269    3.442500
 H    2.276498   -1.048300    1.432423
 H   -3.226793    4.318049   -0.686208
 H   -5.265336   -0.503902    1.076642
