45 
6bbs_ligand_ani.xyz
 C    4.136938   -0.189515    0.587689
 C   -0.384454    0.306502   -0.954428
 C   -0.348179   -0.921993   -0.333266
 C    0.812298    0.990379   -1.569317
 C    1.862205   -0.057487   -1.967923
 S   -4.189711    0.544605    0.268057
 C    3.335293   -0.106906    1.880560
 C    2.939414    3.701244    0.146789
 C    2.380119    2.924281   -1.037692
 S   -1.807352   -1.312148    0.468499
 N   -5.025407   -0.423523   -0.798533
 O   -4.479275    0.066823    1.607014
 O   -4.402349    1.924312   -0.133831
 C   -2.521653    0.147650   -0.084602
 C   -1.661769    0.915229   -0.812862
 S    1.023840   -2.003334   -0.401426
 O    1.284210   -2.526979    0.934806
 O    0.845157   -2.944540   -1.497271
 N    2.178505   -0.874313   -0.798847
 N    1.376819    1.946652   -0.568508
 C    3.561836   -1.169750   -0.438002
 O    2.160209    0.683303    1.700947
 C    1.134723    0.360505    2.628169
 H    4.246491    0.811813    0.153196
 H    5.149830   -0.528938    0.838644
 H    0.493533    1.544505   -2.457721
 H    1.490507   -0.672431   -2.795662
 H    2.784924    0.433906   -2.290657
 H    3.041567   -1.120200    2.184072
 H    3.938344    0.339503    2.684600
 H    3.726300    4.391843   -0.171008
 H    3.360621    3.019804    0.896331
 H    2.149143    4.287109    0.629481
 H    3.193018    2.409629   -1.561769
 H    1.930189    3.612613   -1.764041
 H   -5.586371    0.133490   -1.433906
 H   -5.564847   -1.123658   -0.300909
 H   -1.937819    1.877014   -1.228106
 H    1.780143    1.362880    0.193257
 H    0.585335    2.467059   -0.155831
 H    3.586521   -2.184116   -0.028265
 H    4.170428   -1.161002   -1.349415
 H    1.482936    0.489687    3.663192
 H    0.300220    1.047693    2.456891
 H    0.796894   -0.670071    2.472761
