43 
6bbv_ligand_ani.xyz
 C   -2.436227    3.238114   11.915766
 C   -2.990949    2.487566   10.865388
 N   -6.195753    0.750082    6.029174
 C   -4.775829    1.127849    8.911210
 C   -6.092780    0.401255    8.531989
 C   -5.516167    0.076973    7.134480
 C   -7.755717   -1.396738    5.280988
 C   -9.029917   -1.845211    4.564614
 C  -10.266441   -1.896121    5.457963
 C   -5.724225    3.394702    8.464197
 C   -2.138233    1.326493   10.714929
 C   -1.159384    1.425789   11.659566
 O   -8.625508    0.637525    6.731659
 S   -7.758358    0.372925    5.594088
 O   -7.965087    1.043587    4.320457
 C   -4.198803    0.779591    7.516642
 N   -4.842640    2.536449    9.239271
 C   -4.128150    3.093684   10.260506
 N   -4.541278    4.298043   10.676928
 N   -1.344423    2.574329   12.390125
 N   -2.863681    4.417879   12.384916
 C   -3.909692    4.864493   11.708219
 H   -5.630872    0.933344    5.205161
 H   -4.265275    0.620970    9.729882
 H   -6.991818    1.019588    8.508632
 H   -6.293996   -0.481686    9.145196
 H   -5.412059   -0.997648    6.933104
 H   -7.636788   -1.898261    6.247877
 H   -6.877775   -1.598959    4.658185
 H   -9.198295   -1.176318    3.712989
 H   -8.835004   -2.842493    4.154157
 H  -11.135005   -2.236637    4.886073
 H  -10.121187   -2.592064    6.292696
 H  -10.492754   -0.911437    5.876185
 H   -5.185055    4.283048    8.120305
 H   -6.094848    2.843916    7.595265
 H   -6.567663    3.739234    9.074392
 H   -2.191523    0.530728    9.981648
 H   -0.329922    0.766722   11.881864
 H   -3.317197    0.132874    7.543379
 H   -3.982680    1.657736    6.901463
 H   -0.767557    2.910602   13.145282
 H   -4.306482    5.828484   12.028188
