101 
6bef_ligand_dft.xyz
 C   -1.778269   -2.115874    0.816730
 N   -3.779576   -1.372990   -0.400410
 O   -2.413515   -2.120033    2.018825
 C   -2.416359   -1.715539   -0.342588
 O   -0.357263   -3.026800    3.154864
 C   -1.681269   -1.632108   -1.563413
 O    3.658003   -3.312344    0.764081
 C   -0.338597   -2.017319   -1.613173
 O    2.831782   -2.304648   -2.504877
 C    1.738360   -2.725168   -0.376109
 O    5.005577   -1.873827   -0.486956
 C    2.324211   -3.107078    0.829481
 O    4.900852    1.971522   -0.409383
 C    1.633391   -3.242262    2.030078
 O    2.625196    3.549727    0.172437
 C    0.282808   -2.915556    1.997637
 O    2.540717    2.962988    2.348312
 C   -0.397478   -2.475409    0.787873
 O   -0.164204    2.362244    1.788934
 C    0.338667   -2.409335   -0.422429
 O   -2.601987    1.412278    1.037999
 C    2.817270   -2.606203   -1.310688
 O   -4.705468   -2.729859    1.191290
 C    4.115679   -2.944633   -0.545493
 O    0.255531   -1.999170   -2.810833
 C    4.837472   -4.111685   -1.184017
 O   -3.363494   -0.569708   -2.911491
 C    2.293122   -3.667220    3.309515
 C   -4.819354   -1.884057    0.289058
 C   -6.187362   -1.443445   -0.135316
 C   -6.585281   -0.163634   -0.156251
 C   -5.812730    1.045952    0.192157
 C   -4.854141    1.615561   -0.535710
 C   -4.101096    2.847019   -0.115888
 C   -2.620685    2.488689    0.125459
 C   -1.772814    3.686085    0.613886
 C   -0.278883    3.336660    0.760165
 C    0.401346    2.845780   -0.538927
 C    1.837282    2.404711   -0.240071
 C    2.614082    1.736010   -1.378372
 C    3.913756    1.058763   -0.867225
 C    3.691011    0.103729    0.304731
 C    4.838288   -0.876631    0.522435
 C   -7.131091   -2.590259   -0.389491
 C   -4.266258    3.955600   -1.163067
 C   -2.302244    4.269577    1.927794
 C    0.319581    3.882418   -1.660766
 C    1.751849    0.712300   -2.117374
 C    2.999631    3.641398    1.447358
 C    4.081645    4.665211    1.629161
 C    5.462849    2.789762   -1.403598
 C   -2.257386   -1.084414   -2.801567
 H   -4.013140   -0.816013   -1.218850
 H   -3.361657   -2.431797    1.873385
 H   -1.291507   -2.737450    3.023929
 H    0.725210    2.426414    2.179464
 H   -1.715364    1.373620    1.431652
 H    1.240520   -2.127053   -2.772924
 H    5.141451   -3.826677   -2.193531
 H    4.176944   -4.981188   -1.239785
 H    5.719887   -4.358457   -0.589477
 H    2.181383   -2.895069    4.077573
 H    1.829470   -4.577759    3.702273
 H    3.356415   -3.855653    3.150842
 H   -7.643995    0.005806   -0.363209
 H   -6.101398    1.517421    1.133358
 H   -4.576996    1.194350   -1.503211
 H   -4.520566    3.186058    0.838541
 H   -2.217159    2.159397   -0.851374
 H   -1.828319    4.465011   -0.154330
 H    0.231716    4.259627    1.078547
 H   -0.121896    1.932828   -0.844931
 H    1.788099    1.707225    0.595825
 H    2.906734    2.511632   -2.096171
 H    4.331103    0.489457   -1.714819
 H    3.602771    0.698995    1.221194
 H    2.744935   -0.431822    0.193624
 H    4.734544   -1.361335    1.497300
 H    5.783606   -0.329815    0.508134
 H   -7.174905   -3.241938    0.488597
 H   -6.790076   -3.202776   -1.232484
 H   -8.136888   -2.225751   -0.613745
 H   -3.766224    3.687002   -2.102205
 H   -5.325833    4.115757   -1.383770
 H   -3.850467    4.907617   -0.817264
 H   -1.608934    5.018800    2.325378
 H   -2.421425    3.483912    2.677130
 H   -3.270158    4.759509    1.783516
 H   -0.713442    4.039312   -1.983767
 H    0.725071    4.845522   -1.331767
 H    0.889167    3.566750   -2.540469
 H    0.963324    1.190479   -2.704539
 H    2.358932    0.111279   -2.798370
 H    1.264363    0.029633   -1.415222
 H    3.883287    5.553133    1.024980
 H    4.175948    4.925821    2.683052
 H    5.016716    4.216749    1.277835
 H    4.785414    3.601380   -1.701337
 H    6.368981    3.230182   -0.979462
 H    5.736712    2.208895   -2.297006
 H   -1.595166   -1.131434   -3.676738
