62 
6bfe_ligand_ani.xyz
 O   -1.297702   -1.596751    2.867863
 C   -2.350178   -1.790687    2.257559
 O    0.828995   -1.990755    1.218700
 C   -3.417016    1.653594   -2.177586
 C   -2.879604    1.354179    0.510222
 N    2.120446   -3.377674   -0.432222
 C   -3.958679    2.104937    0.073938
 C   -2.054892    0.730891   -0.429023
 C   -4.257928    2.273842   -1.267862
 C   -2.327005    0.890369   -1.790301
 C    3.991633    3.166902    2.072325
 C    4.131068    3.683616    0.637742
 C    2.856517    2.145085    2.180655
 C    4.317300    2.527766   -0.348765
 C    3.042306    0.992919    1.190918
 C    0.877117   -2.192879   -2.131568
 C    3.075204   -2.758916   -1.394225
 C    3.177767    1.509276   -0.248015
 C    2.285863   -1.610292   -2.034209
 C    0.710382   -3.109570   -0.897960
 C   -3.667196   -1.898332    2.996337
 C   -0.911147   -0.150357    0.025137
 C    3.383287    0.366549   -1.236021
 C   -0.098384   -2.584544    0.322123
 C   -1.288646   -1.648068    0.002649
 N   -2.411630   -1.919443    0.910791
 O    2.237140   -0.461771   -1.204850
 F   -4.748479    2.698512    0.986207
 F   -3.673796    1.800900   -3.488897
 H    0.310515   -1.787750    2.022262
 H   -2.689611    1.267922    1.575503
 H    2.295400   -4.377062   -0.255384
 H    2.184661   -2.865132    0.482602
 H   -5.106443    2.865964   -1.591252
 H   -1.704072    0.438150   -2.560137
 H    4.935382    2.690228    2.375821
 H    3.825979    4.000074    2.766404
 H    3.222311    4.241045    0.366801
 H    4.965758    4.390771    0.561813
 H    2.783670    1.758484    3.204360
 H    1.900604    2.644938    1.966799
 H    5.269201    2.015717   -0.135623
 H    4.387971    2.908285   -1.376718
 H    2.210213    0.282186    1.263336
 H    3.955316    0.432927    1.448874
 H    0.126895   -1.407098   -2.213755
 H    0.800370   -2.804574   -3.038123
 H    3.973252   -2.421579   -0.874870
 H    3.366575   -3.470048   -2.172886
 H    2.236488    2.013262   -0.518552
 H    2.685362   -1.340319   -3.022392
 H    0.257146   -4.053440   -1.209710
 H   -3.541973   -2.591245    3.832200
 H   -3.917577   -0.919812    3.419806
 H   -4.496896   -2.233661    2.367262
 H   -0.632017    0.108086    1.050123
 H   -0.031828    0.019862   -0.601685
 H    3.536369    0.759470   -2.254862
 H    4.289936   -0.201204   -0.963817
 H   -0.530344   -3.465885    0.814196
 H   -1.673300   -1.916126   -0.986215
 H   -3.330626   -1.940794    0.493922
