65 
6bfp_ligand_ani.xyz
 C    2.127774    6.335195    0.114320
 C    1.419592    3.665588   -0.221476
 C    2.118989    1.369747   -0.446991
 C    3.397273    1.751358   -0.065230
 C    5.073957    3.446129    0.715370
 C    5.984346    2.592801    1.184695
 C    1.870942   -0.049256   -0.891423
 C    2.204821   -2.361910   -0.081822
 C    2.085232   -3.045615   -1.293469
 C    1.871517   -5.144971   -0.095552
 C    1.990911   -4.452477    1.109245
 C    2.151699   -3.075552    1.120663
 C    1.712391   -6.630621   -0.108584
 N    0.902577   -7.119803   -1.122521
 C   -0.354584    1.944510   -0.575163
 C   -1.145509    2.720364   -1.428691
 C   -2.993176    1.312503   -0.951529
 C   -0.998154    0.880080    0.093227
 C   -0.345278   -0.037735    1.127618
 C   -4.441117    0.925831   -1.117899
 N   -4.821691   -0.112723   -0.331315
 C   -6.184177   -0.591733   -0.300361
 C   -6.333940   -0.461859    2.314969
 O    3.102422    5.330397    0.285826
 C    2.720299    4.038697    0.087544
 C    1.082158    2.319818   -0.419993
 C    3.730634    3.065166    0.238819
 O    1.216444   -0.327195   -1.876859
 N    2.436749   -0.976251   -0.042361
 C    1.920646   -4.421164   -1.289825
 N    2.287882   -7.446048    0.688068
 C   -2.474327    2.404104   -1.636702
 N   -2.270212    0.573135   -0.114551
 O    0.605281    0.512833    1.906006
 O   -0.674932   -1.181803    1.269848
 O   -5.183750    1.526421   -1.881130
 C   -6.946411   -0.239121    0.962530
 C   -6.568385    0.936316    1.816464
 H    1.682165    6.291710   -0.887732
 H    1.333831    6.255938    0.867840
 H    2.648546    7.285514    0.239310
 H    0.623664    4.403371   -0.249012
 H    4.172393    0.989287   -0.044692
 H    5.306861    4.507447    0.693466
 H    5.799320    1.522098    1.258330
 H    6.953314    2.948082    1.524247
 H    2.109305   -2.494395   -2.225626
 H    1.936808   -4.995035    2.051658
 H    2.233209   -2.547271    2.068137
 H    0.679687   -8.098927   -0.997711
 H    0.101069   -6.550343   -1.356606
 H   -0.697225    3.564650   -1.948406
 H   -4.094717   -0.552883    0.219937
 H   -6.188805   -1.680764   -0.438907
 H   -6.679184   -0.141973   -1.164398
 H   -5.307493   -0.818302    2.357782
 H   -6.966628   -0.843153    3.110739
 H    2.720313   -0.623945    0.860909
 H    1.835901   -4.955522   -2.233250
 H    2.882721   -6.945178    1.346852
 H   -3.111874    2.977681   -2.301418
 H    0.763864    1.432204    1.642313
 H   -8.011329   -0.451341    0.886937
 H   -5.697172    1.512159    1.519541
 H   -7.368132    1.518320    2.264482
