63 
6bfw_ligand_dft.xyz
 C   -4.841879   -0.544473   -0.849030
 C   -2.445777   -0.544461   -0.782498
 C   -4.908098    0.708745   -0.256617
 C   -3.704121    1.316988    0.060081
 C   -2.478255    0.717069   -0.189406
 F   -3.717378    2.520448    0.639148
 F   -5.979918   -1.159046   -1.172075
 C   -3.638960   -1.185654   -1.114164
 C   -1.113189   -1.220815   -0.995365
 C   -0.831525   -2.265527    0.102594
 C    0.424725   -3.148368   -0.145202
 O    0.654186   -4.016798    0.948209
 C    1.830299   -2.583160   -0.404696
 N    2.393109   -1.986702    0.848342
 C    3.842765   -1.665447    0.707228
 C    3.996881   -0.739839   -0.498408
 O    3.341425    0.428659   -0.162113
 C    3.590726    1.541478   -1.033766
 C    2.533984    2.610037   -0.797965
 C    2.493934    3.075917    0.664982
 C    1.435151    4.162253    0.880224
 C    0.053694    3.695590    0.411993
 C    0.095426    3.253552   -1.053047
 C    1.141311    2.154364   -1.255375
 O    3.467495   -1.356500   -1.654469
 C    2.076352   -1.601322   -1.547210
 N   -0.972898   -1.720757    1.456124
 C   -0.400906   -0.582513    1.915125
 C   -1.049215    0.072651    3.104873
 O    0.592915   -0.085896    1.371479
 H   -5.857672    1.191685   -0.062233
 H   -1.564885    1.243262    0.066433
 H   -3.653523   -2.160178   -1.592194
 H   -1.087081   -1.728323   -1.966900
 H   -0.335238   -0.459391   -0.998123
 H   -1.651693   -2.992289    0.043422
 H    0.190542   -3.718071   -1.057869
 H   -0.142403   -4.520976    1.153604
 H    2.447086   -3.466695   -0.600165
 H    1.836675   -1.117857    1.062377
 H    2.223470   -2.654148    1.607944
 H    4.386753   -2.599456    0.554948
 H    4.177598   -1.173954    1.620921
 H    5.058011   -0.580322   -0.722339
 H    3.565160    1.196057   -2.074762
 H    4.595315    1.929109   -0.816344
 H    2.832766    3.464126   -1.424556
 H    3.482152    3.445024    0.966337
 H    2.261418    2.212973    1.301526
 H    1.718211    5.065132    0.322042
 H    1.402542    4.444964    1.938094
 H   -0.687997    4.489359    0.549830
 H   -0.263586    2.848805    1.039967
 H   -0.890190    2.905313   -1.382930
 H    0.346534    4.115945   -1.685122
 H    1.172340    1.840867   -2.307583
 H    0.855798    1.282657   -0.651215
 H    1.762132   -2.045005   -2.493502
 H    1.546638   -0.659884   -1.395177
 H   -1.819934   -1.995459    1.932377
 H   -1.589190   -0.632035    3.742470
 H   -1.763031    0.817627    2.734641
 H   -0.288625    0.592609    3.688202
