62 
6bfx_ligand_ani.xyz
 O    0.762652   -1.256295    2.307358
 C   -0.049532   -0.357478    2.050393
 O    2.666179   -0.565257   -1.974286
 C   -4.517460    1.738444   -0.775513
 C   -4.323490   -0.959715   -0.224879
 N    2.270118   -2.168108    0.328684
 C   -5.480516   -0.249165    0.051745
 C   -3.236174   -0.294903   -0.797596
 C   -5.611766    1.105213   -0.210384
 C   -3.338804    1.070692   -1.071908
 C    1.330651   -0.770821   -1.513057
 C    1.252198   -2.100587   -0.775002
 C    3.642659   -1.787297   -0.090582
 C    3.612108   -0.497475   -0.934365
 C   -0.147841    0.867613    2.932595
 C    4.317037   -2.916189   -0.866367
 C    3.343400    4.304403   -0.476518
 C    3.472339    2.900782    1.595180
 C    1.428241    2.812408    0.136993
 C   -1.954651   -1.043362   -1.102619
 C    3.602077    1.854833   -0.681843
 C   -0.106147   -2.581180   -0.211079
 C   -1.230250   -1.566139    0.148008
 C    2.955402    2.961462    0.154858
 N   -0.871719   -0.402614    0.978409
 O    0.153436   -3.492910    0.849202
 O    3.392232    0.586856   -0.075062
 F   -6.521120   -0.898704    0.601390
 F   -4.600726    3.053171   -1.043677
 H   -4.291399   -2.022327    0.003902
 H    1.947689   -1.585018    1.135139
 H    2.219704   -3.153257    0.661091
 H   -6.525896    1.642024    0.015517
 H   -2.511300    1.625016   -1.505502
 H    0.721508   -0.796880   -2.419221
 H    1.013573    0.068346   -0.887505
 H    1.544753   -2.856945   -1.510217
 H    4.220744   -1.564429    0.807980
 H    4.582182   -0.378534   -1.434899
 H    0.837453    1.052257    3.364854
 H   -0.476803    1.756375    2.384174
 H   -0.849892    0.688475    3.754661
 H    5.349149   -2.648065   -1.109285
 H    3.793464   -3.126379   -1.804577
 H    4.342443   -3.830474   -0.263989
 H    4.431636    4.442431   -0.472748
 H    2.899326    5.141253    0.075608
 H    2.997151    4.368072   -1.515662
 H    4.566490    2.972941    1.621008
 H    3.187728    1.962891    2.081755
 H    3.062320    3.729485    2.184374
 H    0.956243    3.638446    0.681704
 H    1.044268    2.820695   -0.891405
 H    1.109820    1.877586    0.608530
 H   -1.292606   -0.379103   -1.670434
 H   -2.181954   -1.898114   -1.750192
 H    3.184885    1.862427   -1.700148
 H    4.687434    2.041992   -0.766457
 H   -0.559734   -3.205385   -0.990523
 H   -1.945033   -2.177797    0.720120
 H   -1.517871    0.369757    0.873827
 H    0.207480   -2.961292    1.663414
