58 
6bg3_ligand_ani.xyz
 F    4.243414    0.988687    1.459253
 C    4.719629    0.633694    0.250907
 F    6.059144    0.735430    0.302316
 F    4.285234    1.571497   -0.621179
 C    4.267071   -0.744014   -0.144891
 C    2.913697   -1.045378   -0.041883
 C    5.180462   -1.673376   -0.623988
 C    4.719282   -2.927927   -1.014723
 C    3.369193   -3.239733   -0.926995
 C    2.455215   -2.301932   -0.434752
 N    1.096266   -2.674570   -0.381396
 C    0.059865   -2.005935    0.234123
 O    0.217230   -0.968104    0.875736
 N   -1.155889   -2.609841    0.061685
 C   -2.461458   -2.127435    0.535437
 C   -3.077225   -1.083464   -0.411065
 C   -2.420259    0.293881   -0.266657
 O   -4.472016   -1.038207   -0.095225
 C   -5.347700   -0.943575   -1.192552
 O   -5.157712    0.253381   -1.899818
 C   -6.760238   -1.083610   -0.654690
 C   -2.477167   -1.640788    2.005697
 C   -2.748218   -0.140015    2.148387
 N   -1.942381    0.592752    1.131138
 C   -1.880165    2.049942    1.401596
 C   -0.948304    2.819015    0.484579
 C    0.329779    2.353521    0.164109
 C    1.166800    3.101863   -0.659147
 C    0.740032    4.319961   -1.179120
 C   -0.530223    4.789709   -0.866054
 C   -1.364648    4.044296   -0.037722
 H    2.214080   -0.318436    0.348636
 H    6.234194   -1.419866   -0.684338
 H    5.417275   -3.668529   -1.393575
 H    3.022644   -4.222681   -1.238530
 H    0.887314   -3.559631   -0.818262
 H   -1.184957   -3.457781   -0.483793
 H   -3.111997   -3.000032    0.458256
 H   -2.959036   -1.421052   -1.447540
 H   -1.545366    0.359945   -0.918978
 H   -3.130223    1.062459   -0.576127
 H   -5.118939   -1.737636   -1.916528
 H   -5.317534    0.979085   -1.279548
 H   -6.961458   -0.281224    0.062781
 H   -6.892998   -2.045621   -0.150424
 H   -7.482305   -1.013305   -1.472498
 H   -3.248867   -2.183349    2.561636
 H   -1.509169   -1.873753    2.457189
 H   -2.457331    0.206311    3.146160
 H   -3.807423    0.086138    2.000255
 H   -0.981872    0.196182    1.199480
 H   -2.896672    2.461079    1.316321
 H   -1.583023    2.178592    2.450113
 H    0.686736    1.398776    0.553857
 H    2.159168    2.729225   -0.901122
 H    1.393459    4.902092   -1.824274
 H   -0.875275    5.740663   -1.265976
 H   -2.359065    4.414693    0.204221
