83 
6bid_ligand_xtb.xyz
 C   85.817437  -49.333514  140.541610
 O   87.012938  -49.193101  140.650559
 O   84.888561  -48.653035  141.243655
 C   85.347605  -47.556895  142.027006
 C   84.880297  -46.253144  141.433350
 C   84.378059  -45.247573  142.248028
 C   83.942295  -44.054213  141.699555
 C   83.989685  -43.862423  140.329485
 C   84.487787  -44.862272  139.511310
 C   84.939814  -46.049373  140.059927
 N   84.368359  -46.568284  136.385780
 C   82.956730  -46.754187  136.161966
 C   82.646929  -48.036887  135.374536
 N   83.008361  -49.177826  136.163950
 O   86.336509  -48.624777  137.796323
 C   86.736462  -49.771438  137.880633
 C   86.005190  -50.857842  138.690793
 C   85.083403  -51.666093  137.761349
 C   84.064824  -50.742048  137.196892
 C   84.150695  -49.892570  136.113008
 N   82.276326  -49.554318  137.205008
 N   82.897809  -50.484999  137.828826
 N   85.222977  -50.248283  139.739016
 N   88.372539  -47.415256  135.145879
 C   87.753260  -46.471314  134.245138
 C   87.419785  -45.184132  135.004885
 C   86.503255  -45.458865  136.196187
 C   85.059883  -45.604984  135.741806
 O   84.557791  -44.874176  134.909842
 C   88.686948  -46.184593  133.061929
 O   89.081792  -47.409648  132.487527
 N   87.841616  -50.225798  137.271842
 C   88.706569  -49.388667  136.469534
 C   87.872740  -48.629477  135.424717
 O   86.886532  -49.102686  134.903126
 C   89.748213  -50.239903  135.741846
 C   90.820874  -50.829770  136.666411
 C   91.566847  -51.959455  135.952049
 C   92.634614  -52.568862  136.855899
 C   93.625039  -51.501309  137.308352
 C   92.891258  -50.372288  138.023979
 C   91.823609  -49.765898  137.117307
 H   84.948316  -47.688810  143.036803
 H   86.445090  -47.592428  142.063748
 H   84.328273  -45.400454  143.316692
 H   83.555498  -43.277002  142.342334
 H   83.637666  -42.936640  139.898812
 H   84.519275  -44.716885  138.441755
 H   85.340248  -46.824537  139.422671
 H   84.858011  -47.221682  136.982860
 H   82.612843  -45.888462  135.590443
 H   82.434581  -46.796762  137.123198
 H   83.215663  -48.057174  134.443285
 H   81.576313  -48.081436  135.163296
 H   86.755483  -51.512014  139.153747
 H   84.588996  -52.446127  138.341495
 H   85.670553  -52.118708  136.961435
 H   84.909693  -49.745259  135.374631
 H   84.223531  -50.171373  139.588435
 H   89.217542  -47.109237  135.602506
 H   86.844753  -46.955734  133.876507
 H   88.350457  -44.724650  135.346849
 H   86.914787  -44.486311  134.335238
 H   86.817685  -46.344417  136.747584
 H   86.533455  -44.603096  136.875238
 H   89.571035  -45.631632  133.418667
 H   88.154220  -45.556028  132.338548
 H   89.495480  -47.242760  131.635109
 H   88.091660  -51.197410  137.359494
 H   89.192315  -48.659077  137.130703
 H   89.218802  -51.043839  135.224416
 H   90.227943  -49.626516  134.975995
 H   90.339760  -51.245074  137.559427
 H   92.037923  -51.561991  135.050177
 H   90.860509  -52.733914  135.643868
 H   93.159309  -53.363671  136.322192
 H   92.157446  -53.013573  137.732421
 H   94.148114  -51.099882  136.437333
 H   94.370506  -51.941788  137.972985
 H   92.418250  -50.762054  138.928097
 H   93.600346  -49.598945  138.325899
 H   92.302219  -49.328479  136.237420
 H   91.309231  -48.966999  137.654871
