83 
6bid_ligand_ani.xyz
 C    2.367312   -3.203446   -0.016377
 O    2.708248   -3.486313    1.118042
 O    3.180130   -3.275439   -1.096007
 C    4.562389   -3.568613   -0.809258
 C    5.354959   -2.313507   -0.530095
 C    6.126452   -1.723060   -1.531353
 C    6.856094   -0.564761   -1.273674
 C    6.817807    0.015313   -0.011685
 C    6.037790   -0.559828    0.990642
 C    5.307037   -1.715230    0.729888
 N    1.823657    3.769542    0.119854
 C    2.301986    3.163658   -1.105616
 C    3.318036    2.061827   -0.782465
 N    2.802728    1.093144    0.165508
 O   -0.789744   -1.231577   -1.354029
 C   -0.950718   -1.609734   -0.205341
 C    0.147363   -2.355055    0.568668
 C    0.709476   -1.453383    1.689577
 C    1.618641   -0.369713    1.214580
 C    1.821867    0.180820   -0.027592
 N    3.165166    1.135700    1.447129
 N    2.466478    0.247993    2.090598
 N    1.133968   -2.784501   -0.392356
 N   -2.848228    2.163486   -0.078107
 C   -2.199906    3.461212   -0.002938
 C   -1.154662    3.615625   -1.123454
 C   -0.170263    4.780143   -0.923251
 C    0.718596    4.550457    0.290073
 O    0.436880    5.000662    1.391400
 C   -3.292145    4.520425   -0.051594
 O   -4.091666    4.244083   -1.193834
 N   -2.114990   -1.389180    0.482492
 C   -2.953926   -0.284248    0.064245
 C   -2.276706    1.048010    0.449208
 O   -1.296491    1.089489    1.179550
 C   -4.365623   -0.387284    0.654607
 C   -5.075751   -1.727359    0.414106
 C   -6.521864   -1.645974    0.917474
 C   -7.289166   -2.950687    0.693735
 C   -7.259469   -3.352937   -0.782570
 C   -5.818755   -3.458237   -1.287617
 C   -5.043883   -2.158481   -1.056698
 H    4.599410   -4.259606    0.037861
 H    4.923782   -4.065669   -1.712354
 H    6.163421   -2.175856   -2.520819
 H    7.461369   -0.120170   -2.060165
 H    7.394139    0.915648    0.192780
 H    5.983372   -0.094578    1.972897
 H    4.687990   -2.167280    1.503111
 H    2.298617    3.563264    0.991658
 H    1.468241    2.719702   -1.665254
 H    2.773850    3.904704   -1.763489
 H    4.210099    2.495941   -0.328565
 H    3.603630    1.531034   -1.696142
 H   -0.298353   -3.235327    1.056261
 H    1.279772   -2.075856    2.380850
 H   -0.110883   -1.001080    2.256298
 H    1.365884    0.012726   -0.995991
 H    1.018478   -2.430367   -1.333328
 H   -3.602109    2.088950   -0.747403
 H   -1.694736    3.520603    0.963223
 H   -0.600775    2.669744   -1.175079
 H   -1.675397    3.735065   -2.081643
 H   -0.718441    5.708963   -0.745702
 H    0.432399    4.919727   -1.827679
 H   -3.887339    4.456219    0.870791
 H   -2.855285    5.528936   -0.107821
 H   -4.781169    4.916023   -1.246875
 H   -2.022943   -1.472954    1.486583
 H   -3.005512   -0.325531   -1.029850
 H   -4.320007   -0.192738    1.735799
 H   -4.977411    0.418610    0.226490
 H   -4.562244   -2.509330    0.993950
 H   -6.527717   -1.370774    1.980546
 H   -7.032534   -0.831901    0.379812
 H   -8.322682   -2.852405    1.047076
 H   -6.826767   -3.748633    1.293381
 H   -7.791434   -4.299814   -0.935831
 H   -7.793707   -2.594008   -1.372854
 H   -5.309638   -4.272381   -0.751141
 H   -5.801075   -3.725861   -2.351046
 H   -5.481566   -1.357809   -1.673768
 H   -4.002814   -2.282185   -1.384717
