60 
6bkw_ligand_dft.xyz
 C    3.486374    0.512951   -0.194067
 C    2.230061    0.838462   -0.580402
 C    2.289933    4.466007   -0.973866
 N    6.806112   -1.888017    0.823208
 C    4.076446    2.965706   -0.215913
 C    1.182610   -0.190857   -0.783452
 N    5.811465   -1.046325    0.494083
 C   -0.137177   -0.019526   -0.376605
 C   -1.127481   -0.985617   -0.522460
 C   -3.528308   -0.838034   -0.903329
 C   -4.814024   -0.494449   -0.265690
 N    5.731024    1.390194    0.337298
 C   -5.144944   -0.381490    1.058794
 C   -6.511938   -0.046516    1.268437
 C   -7.196035    0.079545    0.086108
 N    1.872883    2.129716   -0.886763
 C    6.579333   -3.313136    0.779277
 C   -8.650393    0.440179   -0.030919
 C   -9.351135    0.246061    1.320776
 C   -8.527691    0.849316    2.462566
 C   -7.178093    0.135848    2.608245
 C    6.353603    0.176252    0.575904
 C   -0.747828   -2.193887   -1.107248
 C    0.545549   -2.405858   -1.556848
 C    1.497703   -1.410149   -1.393201
 C    7.714555    0.095048    0.955607
 C    7.974467   -1.246400    1.103048
 C    9.217933   -1.980455    1.482574
 C    4.498657    1.528068   -0.000423
 F   -0.511375    1.136525    0.224557
 F   -1.648139   -3.165723   -1.216594
 N    2.742017    3.165618   -0.525121
 N   -2.429788   -0.751537   -0.057320
 O    4.830787    3.912356   -0.106718
 O   -3.434021   -1.170264   -2.068461
 S   -6.186289   -0.212393   -1.282498
 H    3.748001   -0.518773   -0.008586
 H    2.151592    4.473480   -2.060937
 H    1.343589    4.724995   -0.484919
 H    3.054715    5.186558   -0.691437
 H   -4.448926   -0.562199    1.872493
 H    0.919265    2.373232   -0.646429
 H    5.501884   -3.473421    0.752694
 H    7.034163   -3.760662   -0.111457
 H    6.994379   -3.792190    1.670518
 H   -9.138610   -0.163794   -0.803847
 H   -8.742492    1.487757   -0.348582
 H   -9.493926   -0.826557    1.504707
 H  -10.346467    0.700826    1.283999
 H   -9.082090    0.789113    3.404868
 H   -8.356777    1.914593    2.258781
 H   -6.522170    0.698832    3.282682
 H   -7.330280   -0.847257    3.074937
 H    0.791142   -3.352333   -2.023787
 H    2.510563   -1.567868   -1.746868
 H    8.390590    0.924106    1.099322
 H    9.086520   -2.551274    2.409526
 H    9.530398   -2.682665    0.700818
 H   10.031335   -1.269068    1.640046
 H   -2.513332   -0.141057    0.742015
