60 
6bkw_ligand_ani.xyz
 C    3.509812    0.510894   -0.113504
 C    2.191401    0.801097   -0.376874
 C    2.219204    4.390289   -1.041215
 N    6.974484   -1.779658    0.729269
 C    4.073921    2.939835   -0.383220
 C    1.162603   -0.262734   -0.485010
 N    5.928727   -0.995812    0.434560
 C   -0.169506   -0.095370   -0.108616
 C   -1.159001   -1.056596   -0.277656
 C   -3.555795   -1.008468   -0.792258
 C   -4.867390   -0.571088   -0.249020
 N    5.787267    1.409391    0.128012
 C   -5.232534   -0.237049    1.026579
 C   -6.607356    0.115931    1.131971
 C   -7.259989    0.032421   -0.065425
 N    1.776003    2.089698   -0.606060
 C    6.737186   -3.198447    0.849980
 C   -8.702470    0.388153   -0.277139
 C   -9.450486    0.460312    1.059354
 C   -8.634808    1.227899    2.101403
 C   -7.318841    0.505930    2.400380
 C    6.431384    0.247117    0.388084
 C   -0.745524   -2.296116   -0.762901
 C    0.571359   -2.532092   -1.121640
 C    1.512571   -1.520015   -0.989133
 C    7.837527    0.224985    0.657525
 C    8.136879   -1.088684    0.870449
 C    9.438263   -1.753892    1.202918
 C    4.499769    1.515965   -0.096135
 F   -0.562069    1.072264    0.479905
 F   -1.630034   -3.292773   -0.855782
 N    2.719743    3.126164   -0.539638
 N   -2.492533   -0.761357    0.055325
 O    4.855793    3.871047   -0.467833
 O   -3.445011   -1.520632   -1.887764
 S   -6.213873   -0.483350   -1.335503
 H    3.797259   -0.504057    0.124660
 H    1.841458    4.283379   -2.066740
 H    1.421608    4.782698   -0.396587
 H    3.054322    5.090041   -1.031333
 H   -4.568552   -0.272369    1.887321
 H    0.920326    2.325451   -0.112595
 H    5.988780   -3.377186    1.625611
 H    6.368485   -3.591909   -0.100559
 H    7.664651   -3.709235    1.117627
 H   -9.178210   -0.325623   -0.958782
 H   -8.745658    1.364541   -0.784239
 H   -9.639218   -0.557960    1.426459
 H  -10.429998    0.928192    0.909641
 H   -9.210777    1.355748    3.024840
 H   -8.416892    2.235598    1.721405
 H   -6.666633    1.130407    3.022289
 H   -7.520392   -0.401132    2.989421
 H    0.841073   -3.511279   -1.500747
 H    2.540375   -1.702655   -1.292033
 H    8.493380    1.084558    0.681760
 H    9.393988   -2.266477    2.170954
 H    9.725505   -2.485161    0.438569
 H   10.227540   -1.000867    1.259332
 H   -2.602715   -0.020490    0.735786
