38 
6bny_ligand_xtb.xyz
 C   -4.115705  -27.655312   -5.753321
 C   -3.440813  -28.947743   -6.218910
 C   -3.902388  -30.137820   -5.375579
 C   -3.710392  -29.183676   -7.683791
 C   -5.007535  -29.407731   -8.152581
 C   -5.261212  -29.612490   -9.490690
 C   -4.212579  -29.595709  -10.408072
 C   -3.557616  -29.769272  -12.632523
 C   -3.110997  -29.936224  -14.873035
 C   -1.715465  -29.808529  -14.653412
 C   -0.751673  -29.901884  -15.724953
 C   -1.287463  -29.588472  -13.356216
 C   -2.206101  -29.563344  -12.307267
 C   -1.783162  -29.354686  -10.916198
 C   -2.906400  -29.374133   -9.963953
 C   -2.678440  -29.171843   -8.601234
 N   -3.983243  -29.928791  -13.877166
 N   -3.641469  -30.114636  -16.120226
 N   -0.873407  -30.672605  -16.845465
 N    0.242120  -30.497655  -17.566402
 N    0.971762  -29.680354  -16.937839
 N    0.411825  -29.289544  -15.804741
 O   -4.531587  -29.799475  -11.716923
 O   -0.623909  -29.187920  -10.587089
 H   -3.864654  -27.455159   -4.714319
 H   -3.781753  -26.815046   -6.357748
 H   -5.197090  -27.730426   -5.836901
 H   -2.359663  -28.835354   -6.088266
 H   -3.633398  -29.982713   -4.333358
 H   -4.980502  -30.263588   -5.434527
 H   -3.429436  -31.053850   -5.721956
 H   -5.833699  -29.421484   -7.458385
 H   -6.262033  -29.785107   -9.853440
 H   -0.238603  -29.450257  -13.141339
 H   -1.656961  -29.002984   -8.292722
 H   -4.649231  -30.057720  -16.133533
 H   -3.177846  -29.670287  -16.897232
 H   -1.593281  -31.328175  -17.105687
