42 
6bod_ligand_ani.xyz
 C   -5.366307    3.433140   -0.135745
 C   -5.595564    1.947056    0.022769
 C   -4.257968   -0.003116    0.028736
 C   -2.871394   -0.511909    0.020091
 C   -1.789116    0.346830    0.043202
 C   -0.489929   -0.158299    0.033685
 C    0.687591    0.727413    0.051766
 C    1.981752    0.010355    0.026821
 C    3.191387    0.713120    0.026947
 C    4.412025    0.051920    0.004013
 C    5.719888    0.822393   -0.009234
 C    5.850560    1.714073    1.229474
 C    5.853281    1.653440   -1.290170
 C    4.401581   -1.352577   -0.019135
 C    3.216087   -2.070602   -0.020807
 C    2.004226   -1.381481    0.000699
 C   -0.355522   -1.555504    0.001872
 C   -2.600291   -1.915519   -0.015167
 N   -1.355156   -2.407600   -0.022202
 N   -3.593193   -2.815074   -0.046770
 O   -4.296684    1.336435    0.017891
 O   -5.272387   -0.680928    0.041847
 O    0.605542    1.945217    0.082983
 O    0.866698   -2.143173   -0.006134
 H   -4.759754    3.816169    0.689937
 H   -4.848004    3.640939   -1.076229
 H   -6.322056    3.965613   -0.141514
 H   -6.190152    1.526994   -0.793413
 H   -6.097688    1.703416    0.963983
 H   -1.938762    1.422443    0.068329
 H    3.128582    1.799619    0.042970
 H    6.535822    0.089856    0.010084
 H    5.030322    2.439725    1.271735
 H    5.820023    1.122746    2.150448
 H    6.793597    2.271966    1.208023
 H    5.840346    1.016814   -2.180752
 H    5.021499    2.362633   -1.374788
 H    6.787883    2.225698   -1.287635
 H    5.350500   -1.885169   -0.037070
 H    3.201728   -3.155566   -0.039605
 H   -4.551728   -2.501514   -0.022989
 H   -3.342781   -3.788468   -0.060317
