42 
6boe_ligand_dft.xyz
 C   -5.172470  -29.100379   -5.851421
 C   -3.824647  -28.640018   -6.422210
 C   -3.376922  -27.316418   -5.788082
 C   -3.865002  -28.545341   -7.936303
 C   -4.734022  -27.648688   -8.583103
 C   -4.784684  -27.547055   -9.962102
 C   -3.950558  -28.356190  -10.729863
 C   -3.279674  -28.950209  -12.903853
 C   -2.780091  -29.418833  -15.080746
 C   -1.733487  -30.321451  -14.688754
 C   -1.582350  -30.559610  -13.332186
 C   -2.351266  -29.874845  -12.394956
 C   -2.196012  -30.104252  -10.951770
 C   -3.075830  -29.257202  -10.123896
 C   -3.047514  -29.337468   -8.726385
 C   -0.957378  -31.055497  -15.710730
 C    1.301259  -30.855530  -14.624348
 N   -3.498661  -28.729537  -14.185817
 N   -3.063042  -29.193510  -16.376237
 N    0.329661  -31.474404  -15.386475
 N    1.223149  -29.702559  -13.939675
 N    2.435102  -29.460949  -13.382961
 N    3.190360  -30.428781  -13.744031
 N    2.526188  -31.321819  -14.516817
 O   -4.050734  -28.207962  -12.090020
 O   -1.406528  -30.914480  -10.491781
 O   -1.407064  -31.349419  -16.807967
 H   -5.106719  -29.223203   -4.765064
 H   -5.960937  -28.366400   -6.055439
 H   -5.480713  -30.055690   -6.287600
 H   -3.077179  -29.401336   -6.166846
 H   -3.293107  -27.421157   -4.701081
 H   -2.404916  -26.999939   -6.179054
 H   -4.098567  -26.516087   -5.989944
 H   -5.387672  -27.013903   -7.990831
 H   -5.455870  -26.855437  -10.459265
 H   -0.865679  -31.285800  -12.956869
 H   -2.355160  -30.047824   -8.283003
 H   -3.862642  -28.612273  -16.574801
 H   -2.729102  -29.852889  -17.066221
 H    0.720463  -32.114810  -16.068441
 H    0.449013  -29.076848  -13.780052
