46 
6bqd_ligand_dft.xyz
 C  -10.843719   -6.542726   11.963476
 C  -12.493779   -7.278932   10.299518
 C  -12.534344   -4.977526   11.135486
 C  -13.596636   -4.579160   10.387285
 C  -14.177676   -5.574534    9.523981
 C  -15.286485   -5.615080    8.629741
 C  -15.339479   -6.892820    8.119743
 C  -13.613400   -6.844840    9.513972
 C  -11.166128   -6.373918   13.418756
 C  -10.831787   -5.341486   15.685692
 C  -10.543702   -5.515776   14.224963
 N  -12.000452   -6.251035   11.108102
 N  -14.326002   -7.632642    8.655722
 O  -12.013242   -8.410775   10.282025
 C  -14.104633   -3.191773   10.465949
 C  -14.252262   -2.543988   11.696822
 C  -14.725350   -1.236905   11.759922
 C  -15.070617   -0.559416   10.597334
 C  -14.909144   -1.181870    9.359106
 C  -14.436434   -2.491898    9.301358
 C  -15.361750   -0.441902    8.130066
 O  -16.415585    0.179899    8.147445
 N  -14.591616   -0.536590    6.998955
 C  -15.103473    0.064464    5.781968
 C  -13.172265   -0.840054    6.982747
 H  -10.567613   -7.574560   11.735057
 H  -10.012231   -5.890576   11.672200
 H  -12.026220   -4.296895   11.809789
 H  -15.972342   -4.812541    8.400386
 H  -16.031203   -7.328525    7.413631
 H  -11.964480   -7.007795   13.804563
 H  -11.113027   -4.305443   15.909242
 H  -11.644764   -5.995955   16.014287
 H   -9.945080   -5.568260   16.289657
 H   -9.750971   -4.889523   13.811582
 H  -14.114262   -8.602697    8.483515
 H  -14.021435   -3.082984   12.611573
 H  -14.846631   -0.753742   12.724782
 H  -15.478438    0.445325   10.634024
 H  -14.320799   -2.979797    8.337518
 H  -16.190502    0.105106    5.832698
 H  -14.721085    1.085667    5.648958
 H  -14.792495   -0.540133    4.923337
 H  -12.803843   -1.037551    7.988238
 H  -12.963129   -1.713712    6.353111
 H  -12.617488    0.015874    6.576716
