46 
6bqd_ligand_xtb.xyz
 C  -10.863192   -6.551072   11.947525
 C  -12.519061   -7.318930   10.331535
 C  -12.531491   -5.014993   11.099274
 C  -13.604228   -4.625267   10.358577
 C  -14.209110   -5.634319    9.547524
 C  -15.334275   -5.691063    8.693037
 C  -15.413450   -6.976065    8.223639
 C  -13.656303   -6.918898    9.560713
 C  -11.186879   -6.312351   13.388952
 C  -10.794824   -5.294446   15.631730
 C  -10.488454   -5.525823   14.190954
 N  -12.009317   -6.275381   11.094040
 N  -14.401652   -7.712278    8.743452
 O  -12.020994   -8.438889   10.349245
 C  -14.101759   -3.246216   10.400986
 C  -14.187761   -2.555016   11.608443
 C  -14.672049   -1.260751   11.644377
 C  -15.078371   -0.633089   10.479423
 C  -14.972689   -1.299781    9.265238
 C  -14.491559   -2.601440    9.230567
 C  -15.482576   -0.651102    8.014687
 O  -16.668229   -0.412708    7.870057
 N  -14.562973   -0.369650    7.061313
 C  -14.994784    0.182747    5.799078
 C  -13.140670   -0.535203    7.210804
 H  -10.619700   -7.606902   11.781384
 H  -10.014271   -5.934609   11.634266
 H  -12.008222   -4.316855   11.735988
 H  -16.012365   -4.892939    8.467695
 H  -16.128973   -7.409574    7.552029
 H  -12.060688   -6.834886   13.754992
 H  -10.949678   -4.231928   15.818164
 H  -11.684849   -5.839729   15.934653
 H   -9.957110   -5.616872   16.249481
 H   -9.615247   -5.008244   13.812127
 H  -14.213004   -8.688173    8.583620
 H  -13.896713   -3.048422   12.524066
 H  -14.745743   -0.740676   12.588186
 H  -15.476316    0.370069   10.503184
 H  -14.408763   -3.116913    8.285382
 H  -16.080556    0.253275    5.816182
 H  -14.568697    1.177723    5.648963
 H  -14.682066   -0.465189    4.976945
 H  -12.890349   -0.778193    8.240361
 H  -12.773247   -1.332949    6.557658
 H  -12.634794    0.393968    6.934504
