25 
6bsx_ligand_ani.xyz
 C  -16.780028   -6.490568  -48.965360
 C  -18.813179   -7.861240  -52.492508
 C  -18.103346   -7.374387  -51.258147
 C  -18.187356   -6.033156  -50.910150
 C  -17.521673   -5.608133  -49.763720
 N  -17.395684   -4.383938  -49.142656
 C  -16.611932   -4.581750  -48.039511
 C  -16.267540   -3.448995  -47.123651
 O  -16.879374   -2.276787  -47.626843
 N  -16.220793   -5.816150  -47.890138
 C  -16.698582   -7.839487  -49.319925
 C  -17.353965   -8.283746  -50.457734
 C  -17.266160   -9.738880  -50.840182
 H  -18.113634   -8.295554  -53.215583
 H  -19.551422   -8.635379  -52.254756
 H  -19.337786   -7.040122  -52.987147
 H  -18.761080   -5.341490  -51.524568
 H  -17.786836   -3.494809  -49.414341
 H  -16.616381   -3.696663  -46.110885
 H  -15.173115   -3.356882  -47.073953
 H  -16.658574   -1.545286  -47.037965
 H  -16.123805   -8.527812  -48.702912
 H  -16.817589   -9.868894  -51.831227
 H  -16.655562  -10.292507  -50.122480
 H  -18.255605  -10.208383  -50.869657
