25 
6bsx_ligand_xtb.xyz
 C  -16.742500   -6.422250  -48.987853
 C  -18.758591   -7.875744  -52.467425
 C  -18.055989   -7.351386  -51.251061
 C  -18.063769   -5.991463  -50.994724
 C  -17.405544   -5.536567  -49.865760
 N  -17.215890   -4.290459  -49.325340
 C  -16.478739   -4.466646  -48.185427
 C  -16.095751   -3.308221  -47.324464
 O  -17.205417   -2.494691  -47.002343
 N  -16.185779   -5.711103  -47.952491
 C  -16.740912   -7.785437  -49.254636
 C  -17.394660   -8.245146  -50.381941
 C  -17.401255   -9.714470  -50.684333
 H  -18.058103   -8.389485  -53.125105
 H  -19.533083   -8.589063  -52.187677
 H  -19.221679   -7.064488  -53.023425
 H  -18.568842   -5.305805  -51.659757
 H  -17.561427   -3.410916  -49.670608
 H  -15.595744   -3.689178  -46.426844
 H  -15.402286   -2.654189  -47.863410
 H  -17.816423   -3.007239  -46.461094
 H  -16.234650   -8.464910  -48.587442
 H  -16.950988   -9.911161  -51.656799
 H  -16.842732  -10.260977  -49.929151
 H  -18.420249  -10.100006  -50.706892
