66 
6bto_ligand_ani.xyz
 C   -1.975412    1.591500   -0.072040
 C   -3.429609    1.920803    1.938441
 C   -1.657111    0.111853    0.169852
 C    2.625809    4.456964   -2.835847
 C    1.429048    4.071119   -1.969956
 C    1.589552    2.696325   -1.322737
 C    0.481904    2.327364   -0.337052
 C   -0.904965    2.228605   -0.977722
 C   -2.142309    2.330844    1.263792
 O   -4.540798    2.316460    1.599220
 N   -3.284517    1.056324    2.982747
 O   -4.470491    0.539585    3.489415
 O   -1.259330   -0.295674    1.268406
 N   -1.777530   -0.738413   -0.881119
 C   -2.645494   -0.636122   -2.066403
 C   -3.943750   -1.403213   -1.755430
 C   -3.450494   -2.881358   -1.723615
 C   -1.949836   -2.758460   -2.044662
 C   -1.936575   -1.587716   -3.035858
 C   -1.269072   -2.129766   -0.821555
 C    0.269638   -2.202787   -0.918713
 O    0.840622   -2.655523   -1.900666
 N    0.940154   -1.729911    0.168658
 C    2.362548   -1.911906    0.301838
 C    2.645744   -2.879229    1.445585
 O    1.918627   -3.071886    2.388750
 O    3.840351   -3.472041    1.302056
 C    3.130376   -0.620602    0.552058
 C    2.792956    0.218683    1.614160
 C    3.540708    1.365619    1.870320
 C    4.643649    1.675076    1.076131
 C    4.983574    0.844455    0.012796
 C    4.226276   -0.295481   -0.247852
 H   -2.941430    1.658197   -0.589807
 H    2.775029    3.734061   -3.646758
 H    3.547578    4.483346   -2.242869
 H    2.491080    5.444661   -3.288812
 H    0.516119    4.093299   -2.579183
 H    1.290046    4.822795   -1.180541
 H    2.551512    2.655890   -0.797585
 H    1.646491    1.928651   -2.108339
 H    0.750392    1.374305    0.139060
 H    0.455780    3.071842    0.471114
 H   -0.836907    1.643185   -1.904096
 H   -1.251476    3.229658   -1.267875
 H   -1.290255    2.137304    1.920920
 H   -2.213901    3.406114    1.074055
 H   -2.577167    0.332051    2.874545
 H   -5.136321    0.990523    2.927753
 H   -2.780223    0.389513   -2.413646
 H   -4.392519   -1.082104   -0.810165
 H   -4.680069   -1.247212   -2.551022
 H   -3.958402   -3.478370   -2.488124
 H   -3.623526   -3.370228   -0.759469
 H   -1.459084   -3.671129   -2.378215
 H   -0.922464   -1.264501   -3.285119
 H   -2.508735   -1.782809   -3.949155
 H   -1.580612   -2.595795    0.123909
 H    0.403750   -1.397557    0.962404
 H    2.719843   -2.359464   -0.632264
 H    3.953483   -4.052362    2.073170
 H    1.941150   -0.011938    2.254575
 H    3.265338    2.015955    2.696681
 H    5.231634    2.565637    1.284892
 H    5.838566    1.084839   -0.614678
 H    4.493758   -0.947163   -1.077989
