85 
6bw2_ligand_ani.xyz
 C   -9.166276    0.840770   -2.032849
 C   -8.088814   -1.776347    2.168466
 C    4.042120    2.283875    2.065923
 C    2.227466    6.294306   -0.594748
 C    5.197666    6.520781    0.007375
 C    6.436126   -4.601594   -0.425746
 C   -0.946971    3.426196    1.461552
 C    5.873031   -3.657440   -1.282388
 C    5.631229   -5.293115    0.470544
 C    0.272955    4.073987    1.225334
 C   -1.115236    2.094062    1.143296
 C   -6.813738    0.180035   -1.445136
 C   -6.290884   -1.065614    0.556529
 C    3.704986   -4.078642   -0.332882
 C   -2.236233   -0.522014   -0.785093
 C    4.312234    1.062091   -1.215537
 C   -3.579347   -0.858981   -0.163077
 C   -1.044457   -0.931556    0.102872
 C    4.217270   -0.350212   -0.641673
 C    2.929665    1.654211   -1.485349
 C    3.876754   -2.330595   -2.132143
 C    3.330333   -5.724446    1.466254
 C    1.940330   -1.193025   -1.205671
 C   -8.164140    0.174121   -1.129591
 C   -7.643380   -1.092887    0.904131
 C    3.879384    3.537940    1.259206
 C    4.503666   -3.384789   -1.240039
 C   -5.877483   -0.428891   -0.608438
 C    3.028058    5.265516    0.144995
 C    4.258101   -5.041290    0.508604
 C   -8.552147   -0.468192    0.052328
 C    1.359457    3.400461    0.683016
 C    0.074749    0.066490    0.028247
 C    2.682530    4.026969    0.668312
 C    1.318429   -0.001132   -0.551564
 C   -0.058390    1.401969    0.527249
 C    1.140803    2.085711    0.237051
 N    4.882122    4.380922    1.066472
 N    3.303228   -1.215910   -1.387430
 N    4.349222    5.412388    0.383360
 N    1.946497    1.239916   -0.491527
 O    3.718190   -6.928283    1.947387
 O    1.236796   -2.131340   -1.571808
 O    2.280552   -5.250773    1.814762
 O   -4.583755   -0.346634   -1.018392
Cl  -10.247042   -0.483982    0.475333
 H   -9.705457    1.634417   -1.505355
 H   -8.669294    1.284428   -2.900064
 H   -9.909514    0.123017   -2.395015
 H   -7.233418   -2.205757    2.697969
 H   -8.588524   -1.072959    2.843275
 H   -8.797053   -2.583781    1.953832
 H    3.855126    2.467065    3.131401
 H    3.334366    1.519481    1.729478
 H    5.063585    1.905244    1.963259
 H    1.202226    5.949348   -0.749306
 H    2.185544    7.246649   -0.049727
 H    2.656625    6.505035   -1.583449
 H    5.211445    6.653840   -1.079641
 H    4.862835    7.452287    0.476060
 H    6.200408    6.279112    0.356372
 H    7.504539   -4.800764   -0.461117
 H   -1.764930    3.981407    1.911404
 H    6.505505   -3.118967   -1.985954
 H    6.091403   -6.000175    1.160541
 H    0.387410    5.115021    1.519031
 H   -2.058446    1.596074    1.356587
 H   -6.460849    0.664398   -2.350784
 H   -5.571465   -1.548567    1.210447
 H    2.637829   -3.877218   -0.265197
 H   -2.218967    0.560728   -0.957396
 H   -2.163910   -0.981972   -1.776367
 H    4.879751    1.061519   -2.152164
 H    4.868302    1.691450   -0.510335
 H   -3.661391   -0.389370    0.829031
 H   -3.707859   -1.944681   -0.040283
 H   -0.692472   -1.935987   -0.153156
 H   -1.386557   -0.970154    1.147937
 H    3.885984   -0.296098    0.402121
 H    5.200641   -0.829443   -0.640265
 H    2.575230    1.311789   -2.463529
 H    2.956005    2.743210   -1.509479
 H    3.056508   -2.761749   -2.712987
 H    4.631467   -1.946237   -2.828962
 H    4.496273   -7.251287    1.473247
