44 
6c1s_ligand_dft.xyz
 C   -4.545797    3.392159    0.553126
 C   -4.940754    1.097528    0.193903
 C   -3.605165    0.764854    0.208789
 C   -3.215650   -0.579355    0.030679
 C   -4.215199   -1.512962   -0.180337
 C   -5.877148    0.046473   -0.011332
 O   -5.457671    2.333263    0.357504
 N   -5.521532   -1.205042   -0.198554
 O   -7.168966    0.393353   -0.011769
 C   -8.108927   -0.651916   -0.219336
 C   -1.779283   -0.935157    0.049871
 C   -1.347576   -2.250947    0.307128
 C    0.005569   -2.556159    0.303068
 C    0.880573   -1.510407    0.052322
 C    0.366935   -0.242096   -0.165708
 N   -0.916844    0.074325   -0.175493
 C    1.497072    0.726228   -0.396084
 N    2.664849   -0.135978   -0.281753
 C    2.358628   -1.459418   -0.016977
 O    3.161560   -2.363089    0.123156
 C    3.961543    0.351635   -0.421658
 C    4.335288    1.681087   -0.725369
 N    5.652782    1.809512   -0.793965
 N    6.126796    0.579710   -0.550744
 C    5.151735   -0.337144   -0.308419
 C    7.552673    0.377867   -0.467612
 C    8.055272    0.423273    0.916689
 N    8.459640    0.446420    1.999684
 H   -3.950145    3.244377    1.463160
 H   -3.871719    3.503488   -0.305812
 H   -5.151187    4.292580    0.658591
 H   -2.831925    1.509920    0.350272
 H   -3.986212   -2.557788   -0.371593
 H   -7.953794   -1.131213   -1.190165
 H   -8.028979   -1.412038    0.563123
 H   -9.086173   -0.170008   -0.183815
 H   -2.074091   -3.022884    0.531924
 H    0.369495   -3.559779    0.498904
 H    1.513612    1.521491    0.358738
 H    1.438151    1.189947   -1.388023
 H    3.700472    2.538333   -0.901965
 H    5.352719   -1.371544   -0.083820
 H    8.028007    1.168970   -1.051408
 H    7.813817   -0.587943   -0.909929
