33 
6c3n_ligand_ani.xyz
 C    4.866121    0.337787    0.020488
 C    3.812000    1.052077    0.583484
 C    4.642234   -0.944347   -0.471787
 C   -0.868035    3.151269    0.652592
 C   -1.405587    3.496743   -0.583002
 C    2.543077    0.484449    0.651989
 C    3.372167   -1.508802   -0.397315
 C   -1.100676    1.873899    1.142994
 C   -2.360387    1.438646   -0.841397
 C    0.067986   -0.958582   -0.988527
 C    0.921007   -1.395864    0.211165
 C   -2.141630   -1.457273    0.072023
 C    2.307754   -0.804507    0.167840
 C   -1.848047    0.986247    0.376010
 N   -2.142525    2.662229   -1.317279
 N   -1.289049   -1.509281   -0.985957
 N   -2.094516   -0.329636    0.849672
 S   -3.188926   -2.706608    0.426246
 H    5.857732    0.779984   -0.034600
 H    3.979944    2.054249    0.970005
 H    5.459661   -1.509508   -0.913494
 H   -0.287434    3.871553    1.221734
 H   -1.243934    4.488676   -0.999621
 H    1.716594    1.049421    1.084066
 H    3.207782   -2.514700   -0.779342
 H   -0.711570    1.553598    2.106763
 H   -2.969700    0.773045   -1.450561
 H    0.535174   -1.292497   -1.919488
 H    0.033140    0.131470   -1.034009
 H    0.970954   -2.491025    0.231036
 H    0.410742   -1.080473    1.128509
 H   -1.394768   -2.380462   -1.486823
 H   -2.706767   -0.401237    1.651492
