32 
6c7b_ligand_ani.xyz
 C    0.440232   -0.222258    0.125727
 C    4.257059   -0.258663    0.011015
 C    5.437518    0.671981   -0.219745
 C   -3.546401    1.203652    0.197469
 C   -6.935753   -0.000052   -0.168458
 C   -4.591237    0.336371   -0.023716
 C   -4.334761   -1.034872   -0.287936
 C   -3.042561   -1.492529   -0.318062
 C   -1.946956   -0.626282   -0.089198
 C   -2.209651    0.745312    0.172524
 C   -1.110448    1.616116    0.412215
 C    0.174125    1.148139    0.390797
 C    1.836833   -0.801393    0.122659
 C    2.962295    0.110522   -0.110789
 C   -0.605498   -1.081464   -0.101570
 O   -5.842094    0.867690    0.028048
 O    4.661957   -1.473631    0.355023
 O    5.241830    1.954810   -0.521142
 O    6.552536    0.215307   -0.122221
 O    1.984922   -1.996427    0.291436
 H   -3.761040    2.249958    0.396673
 H   -6.915996   -0.452087   -1.168804
 H   -6.957928   -0.797661    0.585763
 H   -7.829751    0.616668   -0.068104
 H   -5.151773   -1.725066   -0.465211
 H   -2.845484   -2.544685   -0.518290
 H   -1.304873    2.666737    0.612545
 H    0.995843    1.826624    0.603487
 H    2.718333    1.113312   -0.438175
 H   -0.393332   -2.130756   -0.288260
 H    5.641294   -1.436985    0.341128
 H    4.302730    2.184471   -0.519502
