60 
6c7d_ligand_dft.xyz
 C   -3.975478    0.425433   -1.172797
 C   -3.832165   -0.646981   -0.074176
 C   -6.626290   -0.740922    0.885906
 C   -6.224613   -1.340596   -0.471108
 C   -6.356225   -0.267686   -1.564174
 C    2.440137   -2.497363    0.097925
 C    1.090738   -0.469533   -0.014376
 C    0.041080   -2.600739    0.415841
 C    4.714940   -1.120635   -0.426233
 C   -1.353410   -0.450169    0.253181
 C    3.020121    2.064230   -0.414576
 C    1.953861    3.909548   -1.566466
 C    1.356729    4.310745   -0.375728
 C    2.779313    2.792201   -1.581828
 C    1.270192   -3.226851    0.352897
 C    1.597290    3.610899    0.801767
 C   -0.055263   -1.215864    0.213221
 C    2.331334   -1.099759   -0.061760
 C    2.434871    2.503189    0.778293
 C    3.904709    0.886727   -0.472258
 C    4.724748   -2.553941   -0.251825
 C   -5.826921    1.513950    0.123772
 C   -4.767571   -1.823776   -0.402785
 C   -4.245294   -0.051037    1.285197
 C   -5.700190    0.439887    1.216679
 C   -5.431163    0.914881   -1.235662
 C    6.029896   -3.274178   -0.374167
 N    5.196482    0.950175   -0.724265
 N    5.710831   -0.305084   -0.692957
 N    3.636396   -3.201429    0.011783
 N    3.538000   -0.423185   -0.289158
 N   -2.468215   -1.179366   -0.017345
 O   -1.363690    0.747173    0.510103
Cl    2.744287    1.651305    2.269322
 H   -3.675285   -0.006481   -2.136926
 H   -3.295552    1.253975   -0.954129
 H   -6.558052   -1.505023    1.671297
 H   -7.670806   -0.405531    0.850813
 H   -6.872730   -2.192579   -0.707303
 H   -7.397700    0.072725   -1.628539
 H   -6.093664   -0.691322   -2.542552
 H    0.984784    0.598731   -0.149318
 H   -0.841530   -3.186740    0.654473
 H    1.773566    4.461482   -2.482975
 H    0.700493    5.174901   -0.356398
 H    3.251412    2.464980   -2.502338
 H    1.370988   -4.296378    0.501983
 H    1.141558    3.917861    1.736052
 H   -5.179374    2.367553    0.360265
 H   -6.857984    1.888694    0.083114
 H   -4.661247   -2.601265    0.366263
 H   -4.476674   -2.267894   -1.366174
 H   -3.570788    0.771678    1.537673
 H   -4.135778   -0.820840    2.059996
 H   -5.979152    0.866698    2.187021
 H   -5.519574    1.679921   -2.015873
 H    6.466346   -3.104067   -1.363683
 H    6.746673   -2.887783    0.357558
 H    5.873281   -4.341775   -0.214535
 H   -2.333284   -2.098831   -0.410041
