39 
6c7e_ligand_xtb.xyz
 C    0.851878   -2.374458    0.088027
 C    0.528072   -1.013570   -0.129820
 C   -0.799153   -0.620415   -0.234281
 C   -3.214889   -1.017982   -0.165362
 C    0.720296    2.217291   -0.320334
 C   -1.227607    4.198122   -0.184354
 C   -1.071839    3.316928    0.871625
 C   -0.095455    2.338962    0.806076
 C   -5.541727   -1.583810   -0.674207
 C   -0.400672    4.113700   -1.292411
 C    0.570126    3.131970   -1.358208
 C   -1.505488   -2.875124    0.227793
 C   -0.194856   -3.283234    0.288388
 C   -1.818532   -1.542711   -0.064040
 C    1.760540    1.197930   -0.398423
 C    2.893551   -0.646245   -0.319036
 C    3.119574   -2.043729   -0.128342
 C    4.511488   -2.561724   -0.172400
 N    3.036301    1.467330   -0.563409
 N    3.735391    0.343318   -0.511594
 N    2.133371   -2.848711    0.096072
 N    1.599111   -0.152946   -0.254782
 N   -4.149592   -1.927251   -0.525592
 O   -3.478962    0.149164    0.052962
Cl    0.122659    1.268734    2.150455
 H   -1.065402    0.400818   -0.455906
 H   -1.993799    4.956280   -0.134462
 H   -1.702880    3.382309    1.743459
 H   -5.650250   -0.538313   -0.390282
 H   -5.867441   -1.713246   -1.708326
 H   -6.161229   -2.203472   -0.023286
 H   -0.513493    4.811654   -2.107625
 H    1.223427    3.054059   -2.213290
 H   -2.288716   -3.592489    0.424634
 H    0.065820   -4.310226    0.488272
 H    4.938287   -2.375211   -1.156218
 H    5.123946   -2.028055    0.551405
 H    4.515317   -3.626199    0.040457
 H   -3.871003   -2.863288   -0.769257
