39 
6c7e_ligand_ani.xyz
 C    0.990765   -2.374657    0.073719
 C    0.593554   -1.040578   -0.142113
 C   -0.749019   -0.700976   -0.244579
 C   -3.143952   -1.241775   -0.108827
 C    0.567152    2.238740   -0.342441
 C   -1.517484    4.120529   -0.336724
 C   -1.250321    3.382984    0.809509
 C   -0.211365    2.457536    0.804132
 C   -5.446045   -1.836478   -0.611204
 C   -0.745088    3.936594   -1.478414
 C    0.290922    3.012742   -1.473000
 C   -1.334357   -3.001590    0.226285
 C   -0.005520   -3.346637    0.281617
 C   -1.714025   -1.676488   -0.052108
 C    1.689411    1.264974   -0.402089
 C    2.946104   -0.506984   -0.305527
 C    3.254666   -1.918718   -0.113650
 C    4.689880   -2.343457   -0.134000
 N    2.937456    1.626828   -0.580436
 N    3.732550    0.523955   -0.509914
 N    2.320063   -2.788830    0.082832
 N    1.631006   -0.101831   -0.258232
 N   -4.061344   -2.207963   -0.405192
 O   -3.468155   -0.081878    0.098889
Cl    0.083979    1.553692    2.255426
 H   -1.058417    0.309328   -0.481332
 H   -2.329449    4.841791   -0.333811
 H   -1.841778    3.513225    1.709808
 H   -5.754764   -1.171274    0.197073
 H   -5.600856   -1.306173   -1.559017
 H   -6.064825   -2.736030   -0.591939
 H   -0.945626    4.516401   -2.374910
 H    0.903780    2.872096   -2.358421
 H   -2.090749   -3.758826    0.424943
 H    0.317282   -4.365387    0.470372
 H    5.178381   -2.010761   -1.055697
 H    5.239970   -1.889593    0.697378
 H    4.746277   -3.431338   -0.055963
 H   -3.731412   -3.060865   -0.828745
