52 
6c7f_ligand_ani.xyz
 C   -1.448408    0.998837   -0.109441
 C   -2.090453    2.204283   -0.347818
 C   -3.404380    2.218862   -0.847869
 C   -3.504543   -2.495656   -1.179824
 C    0.700902   -1.072806    0.994052
 C    2.718280    0.460076    2.203226
 C    1.557137    0.164286    2.899900
 C    0.553163   -0.593248    2.304316
 C    5.695023   -0.104610   -1.414958
 C    6.606671   -1.186008   -1.994803
 C   -4.049660    1.042471   -1.142644
 C    1.881678   -0.782746    0.311472
 C   -3.404107   -0.191539   -0.946445
 C   -2.107456   -0.192274   -0.394684
 C    2.883346   -0.022960    0.906667
 C   -0.334260   -1.899971    0.317492
 C   -2.162775   -2.601298   -0.620226
 C   -1.339849    3.457528   -0.021373
 C   -4.207007   -3.753369   -1.586391
 C    4.918763    0.619995   -2.514456
 C   -0.984349    5.817198   -0.542478
 C    4.748083   -0.714303   -0.388875
 N   -0.238839   -3.195404    0.143317
 N   -1.387229   -3.644842   -0.436030
 N   -4.082777   -1.348956   -1.320390
 N   -1.535516   -1.457227   -0.181934
 N   -1.736238    4.587419   -0.679855
 O   -0.422966    3.458818    0.785946
 O    4.014740    0.335357    0.230177
Cl   -0.896869   -0.907347    3.206953
 H   -0.436289    1.012865    0.274975
 H   -3.931892    3.162053   -0.980991
 H    3.505633    1.060139    2.648043
 H    1.416363    0.527175    3.912684
 H    6.307808    0.631436   -0.875669
 H    6.018857   -1.938183   -2.537146
 H    7.329903   -0.759035   -2.698467
 H    7.165660   -1.701545   -1.205446
 H   -5.055217    1.024363   -1.550772
 H    1.994799   -1.125819   -0.712778
 H   -3.570636   -4.353818   -2.244653
 H   -4.430929   -4.372409   -0.710725
 H   -5.138283   -3.500012   -2.097275
 H    5.601337    1.098155   -3.225329
 H    4.294465   -0.087320   -3.076619
 H    4.262679    1.385745   -2.090976
 H   -0.514786    5.812799    0.441854
 H   -0.193208    5.909213   -1.297270
 H   -1.658053    6.674602   -0.618155
 H    5.307649   -1.266458    0.382142
 H    4.064282   -1.423948   -0.873868
 H   -2.318162    4.478081   -1.495544
