73 
6c7g_ligand_xtb.xyz
 C    0.259716   -1.516755   -0.055735
 C   -1.073707   -1.883614   -0.125526
 C   -1.411048   -3.212229   -0.406984
 C    3.106599   -4.407627   -1.018344
 C    2.872788    0.136931    0.763699
 C    1.991335    2.480561    1.955487
 C    1.724178    1.269388    2.554010
 C    2.168896    0.096700    1.965017
 C    3.825680    5.430538   -1.207589
 C    4.449528    5.641766   -2.583609
 C   -0.430858   -4.137336   -0.674547
 C    3.161939    1.365130    0.176666
 C    0.922814   -3.779146   -0.646919
 C    1.258504   -2.453352   -0.282991
 C    2.721778    2.545760    0.764527
 C    3.361320   -1.089130    0.141154
 C    3.543773   -3.101317   -0.639210
 C   -2.074867   -0.802482    0.146115
 C   -7.187400    0.435154    0.512726
 C   -6.467907    1.568651   -1.592564
 C   -5.657313    2.405451    0.616013
 C   -5.606054   -0.708646   -1.043653
 C   -4.796307    0.128815    1.165432
 C   -4.076555    1.265453   -0.941184
 C   -6.813837    0.224518   -0.953747
 C   -6.004171    1.059830    1.250850
 C   -5.286728    2.193007   -0.850771
 C   -4.421770   -0.085291   -0.304442
 C    4.117122   -5.417858   -1.426932
 C    4.652892    6.110530   -0.120462
 C    3.695282    3.933679   -0.915016
 N    4.628911   -1.348715   -0.088853
 N    4.747614   -2.580906   -0.563331
 N    1.852899   -4.720737   -0.987679
 N    2.606977   -2.172280   -0.214933
 N   -3.288972   -1.002680   -0.407806
 O   -1.779274    0.176328    0.807330
 O    2.938279    3.785193    0.271441
Cl    1.855448   -1.419917    2.741689
 H    0.496111   -0.489225    0.171144
 H   -2.443907   -3.529087   -0.401540
 H    1.647134    3.401665    2.397089
 H    1.168846    1.225891    3.476930
 H    2.816783    5.855131   -1.198454
 H    4.552461    6.704055   -2.789033
 H    5.436971    5.186937   -2.626069
 H    3.832659    5.199370   -3.362497
 H   -0.673391   -5.159626   -0.917027
 H    3.729381    1.363370   -0.739550
 H   -7.451201   -0.520586    0.971426
 H   -8.058017    1.090718    0.581728
 H   -7.332124    2.234394   -1.543654
 H   -6.214554    1.426620   -2.645913
 H   -4.818797    2.859536    1.147005
 H   -6.511056    3.082844    0.689541
 H   -5.342661   -0.872727   -2.092359
 H   -5.851175   -1.676014   -0.596995
 H   -5.026255   -0.834906    1.626505
 H   -3.944695    0.561876    1.689922
 H   -3.225525    1.698006   -0.414365
 H   -3.791062    1.114659   -1.985666
 H   -7.657994   -0.228402   -1.486162
 H   -6.268012    1.208839    2.303481
 H   -5.035956    3.156157   -1.308610
 H    4.706484   -5.033053   -2.256601
 H    4.802248   -5.601257   -0.601314
 H    3.620730   -6.340723   -1.710688
 H    5.673955    5.734651   -0.129863
 H    4.678815    7.185516   -0.280057
 H    4.218404    5.913430    0.855689
 H    4.690825    3.488092   -0.788256
 H    3.186702    3.430894   -1.749438
 H   -3.412547   -1.795857   -1.015833
