52 
6c7i_ligand_xtb.xyz
 C   -0.304367   -0.793040    0.167606
 C   -1.513788   -1.429300    0.393136
 C   -1.567376   -2.827521    0.416326
 C    2.994380   -3.189395   -0.708979
 N    4.212392   -1.018751   -0.881616
 C    1.954376    1.508154    0.189464
 C    1.357989    3.802299   -0.265834
 C    1.392359    1.619093    1.458983
 C   -5.129294   -0.354576    0.481654
 C    1.900147    4.912353   -2.297052
 C   -5.602924    0.242589   -0.852151
 C   -0.439839   -3.569969    0.160804
 C    0.766913    3.881819    0.998761
 C    0.790939    2.803421    1.855352
 C    1.950493    2.609865   -0.661966
 C    0.787166   -2.947685   -0.102157
 C    0.849089   -1.534439   -0.048907
 C    2.617915    0.284862   -0.246662
 C    3.160371   -1.771691   -0.654122
 C   -2.695962   -0.546161    0.637798
 C    4.153366   -4.036911   -1.092349
 C   -5.930939   -0.854112   -1.863088
 C   -6.821622    1.127528   -0.608159
 N    3.873063    0.238008   -0.635397
 N    1.860224   -3.734544   -0.413776
 N    2.094150   -0.978373   -0.259087
 N   -3.899011   -1.100539    0.362460
 O   -2.571338    0.587186    1.061488
 O    1.299238    4.925407   -1.022584
Cl    1.462239    0.287337    2.564708
 H   -0.287491    0.285304    0.158351
 H   -2.490517   -3.336335    0.651751
 H   -5.902072   -1.012715    0.890438
 H   -4.933382    0.453347    1.190274
 H    2.972023    4.703184   -2.232674
 H    1.424358    4.179920   -2.956664
 H    1.750115    5.911655   -2.701902
 H   -4.790073    0.859884   -1.248832
 H   -0.466126   -4.647872    0.151514
 H    0.301203    4.808852    1.290660
 H    0.344294    2.872860    2.833869
 H    2.421533    2.499702   -1.624973
 H    4.507960   -3.746927   -2.079417
 H    4.971872   -3.872537   -0.394189
 H    3.862075   -5.082611   -1.088524
 H   -5.048565   -1.441949   -2.107746
 H   -6.696044   -1.519768   -1.467446
 H   -6.305507   -0.415203   -2.784814
 H   -7.642064    0.539870   -0.201417
 H   -6.583310    1.920910    0.095477
 H   -7.153353    1.581743   -1.538525
 H   -3.940270   -1.990499   -0.105322
