52 
6c7i_ligand_ani.xyz
 C   -0.260938   -0.875646    0.107918
 C   -1.415820   -1.608947    0.333534
 C   -1.362375   -3.013943    0.370743
 C    3.239199   -3.018354   -0.708826
 N    4.285377   -0.731682   -0.866410
 C    1.824436    1.631394    0.260844
 C    0.997689    3.836689   -0.307330
 C    1.274098    1.775368    1.539798
 C   -5.112818   -0.791790    0.497869
 C    1.421459    4.814025   -2.412736
 C   -5.507951    0.062086   -0.718880
 C   -0.178713   -3.671139    0.137470
 C    0.411128    3.944531    0.956843
 C    0.558468    2.921856    1.876922
 C    1.713886    2.693353   -0.638818
 C    0.998358   -2.945373   -0.124926
 C    0.945832   -1.538606   -0.073817
 C    2.579125    0.439588   -0.194969
 C    3.297061   -1.563822   -0.635501
 C   -2.671731   -0.829399    0.552016
 C    4.480579   -3.762378   -1.090453
 C   -5.575708   -0.756044   -2.007426
 C   -6.844837    0.753628   -0.445498
 N    3.821897    0.521321   -0.605011
 N    2.150460   -3.660370   -0.440918
 N    2.171543   -0.872972   -0.243455
 N   -3.849530   -1.490716    0.374444
 O   -2.636888    0.354943    0.859873
 O    0.821620    4.895340   -1.139339
Cl    1.463337    0.537154    2.737793
 H   -0.327628    0.204825    0.068319
 H   -2.251549   -3.598208    0.603522
 H   -5.893197   -1.535303    0.701215
 H   -5.032008   -0.140007    1.372121
 H    2.511732    4.712704   -2.333778
 H    1.022251    3.968925   -2.988261
 H    1.178729    5.747065   -2.922952
 H   -4.735370    0.833588   -0.833542
 H   -0.115170   -4.754599    0.126562
 H   -0.145941    4.843942    1.196264
 H    0.118807    3.002082    2.865505
 H    2.211665    2.588125   -1.597682
 H    4.856454   -3.415791   -2.058866
 H    5.277473   -3.586990   -0.359851
 H    4.260627   -4.830892   -1.140625
 H   -4.603594   -1.184413   -2.271742
 H   -6.297838   -1.578291   -1.914582
 H   -5.898121   -0.124454   -2.842560
 H   -7.646409    0.014882   -0.313594
 H   -6.798672    1.366409    0.461942
 H   -7.126444    1.406197   -1.279087
 H   -3.841182   -2.415199   -0.024298
