52 
6c7i_ligand_dft.xyz
 C   -0.134004   -0.912741    0.213809
 C   -1.217442   -1.767122    0.350927
 C   -1.036318   -3.152973    0.228633
 C    3.563386   -2.644255   -0.754531
 N    4.392763   -0.291512   -0.763124
 C    1.627020    1.772678    0.248166
 C    0.394364    3.754059   -0.400277
 C    1.122405    1.891668    1.541942
 C   -4.980706   -1.291668    0.503539
 C    0.508978    4.680632   -2.579172
 C   -5.393483   -0.313512   -0.605615
 C    0.212407   -3.665182   -0.062291
 C   -0.128761    3.839606    0.894418
 C    0.234644    2.916963    1.858563
 C    1.267491    2.716898   -0.719642
 C    1.318550   -2.819923   -0.230624
 C    1.127726   -1.432024   -0.063661
 C    2.558795    0.698069   -0.139575
 C    3.467316   -1.211420   -0.604549
 C   -2.542244   -1.119955    0.650291
 C    4.886605   -3.230701   -1.131741
 C   -5.367337   -0.978095   -1.982592
 C   -6.776289    0.259900   -0.292797
 N    3.816525    0.902726   -0.474834
 N    2.535867   -3.405762   -0.560785
 N    2.275122   -0.642059   -0.223067
 N   -3.649745   -1.850550    0.339992
 O   -2.607901   -0.002815    1.143523
 O   -0.009541    4.711460   -1.266152
Cl    1.587067    0.757363    2.784682
 H   -0.303640    0.149563    0.329888
 H   -1.864983   -3.835548    0.391684
 H   -5.689162   -2.127931    0.549584
 H   -5.001622   -0.780344    1.469638
 H    1.602081    4.773521   -2.580455
 H    0.221195    3.759780   -3.102164
 H    0.072766    5.537445   -3.093042
 H   -4.664213    0.505337   -0.594396
 H    0.378670   -4.731868   -0.166074
 H   -0.819151    4.643268    1.125598
 H   -0.166852    2.986852    2.862929
 H    1.692355    2.614276   -1.710557
 H    5.226994   -2.817761   -2.086807
 H    5.644274   -2.968142   -0.386406
 H    4.796777   -4.315274   -1.205373
 H   -4.367141   -1.348737   -2.232919
 H   -6.066813   -1.823786   -2.023313
 H   -5.659236   -0.268974   -2.764253
 H   -7.535582   -0.532648   -0.277887
 H   -6.789523    0.758509    0.682537
 H   -7.076318    0.992735   -1.048971
 H   -3.543819   -2.649918   -0.264400
