61 
6c7j_ligand_xtb.xyz
 C    1.162139    0.670253   -0.237509
 C    2.441475    0.142833   -0.295083
 C    3.542279    1.004417   -0.361382
 C    0.767337    4.805772   -0.593348
 C   -1.551036    2.227303    0.038175
 C   -3.318258   -1.091202    0.006571
 C   -2.770949   -1.682908    1.142574
 C   -1.853028   -0.997282    1.920094
 C    5.025954   -3.645956    0.219204
 C    6.365915   -3.001258   -0.128399
 C    3.358207    2.364134   -0.433361
 C   -2.897047    0.199282   -0.334781
 C   -1.959271    0.879582    0.420650
 C    2.071755    2.917390   -0.415028
 C    0.967672    2.044317   -0.265148
 C   -1.450443    0.275963    1.573698
 C   -0.403990    4.010603   -0.404644
 C    2.552195   -1.347671   -0.242365
 C    0.619263    6.268237   -0.812046
 C    5.164668   -5.163711    0.290207
 C   -5.726674   -2.939024    0.560425
 C   -5.818365   -2.893106   -1.932767
 C   -3.905125   -4.048447   -0.824758
 C    3.948682   -3.277542   -0.811998
 C   -4.883451   -2.874237   -0.716190
 N   -2.368819    3.249483   -0.071239
 N   -1.672629    4.344946   -0.339370
 N    1.943574    4.270195   -0.560341
 N   -0.269176    2.648729   -0.184048
 N    3.654345   -1.864906   -0.829880
 O    1.687777   -2.038043    0.264407
 O   -4.220485   -1.609472   -0.852642
Cl   -0.322874    1.125574    2.578963
 H    0.329024   -0.011956   -0.179162
 H    4.549075    0.612963   -0.340996
 H   -3.040738   -2.678114    1.449352
 H   -1.443459   -1.464203    2.801600
 H    4.695941   -3.273952    1.194767
 H    7.127255   -3.309394    0.584139
 H    6.687538   -3.303856   -1.123404
 H    6.300462   -1.915907   -0.097820
 H    4.193701    3.041438   -0.510226
 H   -3.315456    0.663632   -1.213228
 H    0.148938    6.443134   -1.778496
 H   -0.034888    6.689469   -0.052234
 H    1.594101    6.745354   -0.787317
 H    5.480997   -5.561440   -0.671946
 H    5.904178   -5.442752    1.036666
 H    4.216293   -5.622465    0.558118
 H   -6.369163   -2.063261    0.617079
 H   -6.350023   -3.828891    0.536391
 H   -5.116939   -2.971907    1.457648
 H   -6.411134   -3.802659   -1.943643
 H   -6.483449   -2.034743   -1.898330
 H   -5.234313   -2.837122   -2.847158
 H   -3.297474   -4.169865    0.066098
 H   -4.462081   -4.967881   -0.984840
 H   -3.241103   -3.891145   -1.671651
 H    3.013972   -3.783555   -0.558832
 H    4.267190   -3.589978   -1.811466
 H    4.331579   -1.251149   -1.250187
