22 
6c8p_ligand_ani.xyz
 C   -1.508303    1.430634    0.373194
 C   -3.823009   -0.010705   -0.191494
 C    3.613295    0.561617   -0.077608
 C    2.421077   -0.429527    0.134332
 C    1.092876    0.126160   -0.052882
 C   -0.057440   -0.600741    0.074478
 C   -1.385885    0.060062    0.086974
 C   -2.742485    2.064773    0.369211
 C   -3.901338    1.350059    0.080833
 C   -2.583920   -0.618182   -0.174380
 F   -2.547983   -1.957863   -0.432277
 O    4.482631    0.702372    0.729103
 O    3.583850    1.260374   -1.228882
 O    2.680509   -1.559583    0.478751
 O    0.020792   -1.923876    0.183907
 H   -0.628688    2.009348    0.637514
 H   -4.703150   -0.609522   -0.409232
 H    1.022214    1.172424   -0.308056
 H   -2.797041    3.127017    0.589941
 H   -4.865662    1.848808    0.073980
 H    2.872070    0.946743   -1.805094
 H   -0.859362   -2.313249    0.072462
