37 
6c9n_ligand_ani.xyz
 N    2.922648   -2.606939    0.316260
 C    1.681666   -3.024121    0.143456
 N    0.595816   -2.280446   -0.106052
 C    0.860760   -0.974769   -0.203788
 C    2.111750   -0.372161   -0.046829
 C    3.170897   -1.281074    0.236973
 N    4.429520   -0.878009    0.425996
 C    1.912706    1.050638   -0.242439
 C    0.573331    1.211283   -0.494587
 N   -0.070405    0.000252   -0.471387
 C   -1.468327   -0.227798   -0.763271
 C    2.952518    2.109385   -0.157611
 N    2.574895    3.360002   -0.546725
 O    4.087934    1.898089    0.264435
 C   -2.215134   -0.945466    0.366370
 O   -2.188105   -2.339537    0.228108
 C   -3.636948   -0.422059    0.183828
 O   -4.290487   -1.154467   -0.829747
 C   -3.412448    1.003753   -0.326071
 O   -2.105266    1.022492   -0.910605
 C   -3.484575    2.071346    0.750522
 O   -2.588016    1.722813    1.786427
 H    1.515115   -4.092927    0.224680
 H    5.121123   -1.569055    0.666151
 H    4.627085    0.118470    0.449447
 H   -0.026436    2.095022   -0.667473
 H   -1.555773   -0.805215   -1.694974
 H    3.317609    4.041617   -0.605629
 H    1.773703    3.495978   -1.142212
 H   -1.800420   -0.614448    1.325849
 H   -1.248276   -2.599223    0.115507
 H   -4.209941   -0.451858    1.123885
 H   -3.943622   -2.058535   -0.767347
 H   -4.143786    1.226405   -1.111804
 H   -3.229932    3.040543    0.298738
 H   -4.521035    2.127872    1.120527
 H   -2.448384    2.492473    2.349748
