54 
6c9v_ligand_ani.xyz
 N   -0.273856    2.431772    0.063277
 N    2.090639    2.085055   -0.027603
 C    1.793766    0.815068   -0.317247
 C    0.525015    0.248117   -0.423256
 C   -0.562241    1.151651   -0.236836
 C    1.926728   -1.326615   -0.775024
 C   -2.356747   -0.416544   -0.949921
 C   -3.579709   -0.928235   -0.205571
 C   -2.901952    1.845723   -0.218174
 C   -6.684090    0.144598    1.159981
 C   -8.587352   -1.160394    0.437993
 C    4.127192   -0.043479   -0.692281
 C    0.989206    2.822436    0.144492
 C    4.790851    0.526355    0.565800
 C   -4.130338    1.301982    0.495483
 C   -5.930849   -0.316364    0.071892
 C   -7.996808   -0.281025    1.338018
 C   -7.844929   -1.619395   -0.646214
 C    6.189118   -0.080281    0.482345
 C   -6.529184   -1.212496   -0.823122
 C    5.931512   -1.440725   -0.171570
 C    5.800735   -2.593641    0.805896
 N   -1.876001    0.810922   -0.312246
 N   -4.606939    0.108045   -0.182081
 N    0.646413   -1.108730   -0.703648
 N    2.689792   -0.201683   -0.555126
 O    4.867400    1.926007    0.548786
 O    6.992642    0.680340   -0.393320
 O    4.704557   -1.312234   -0.897962
 O    4.802389   -2.265648    1.751287
 H    2.404577   -2.273255   -0.978342
 H   -2.624224   -0.205269   -1.996308
 H   -1.553094   -1.155748   -0.945285
 H   -3.964870   -1.818646   -0.710886
 H   -3.298445   -1.232458    0.817663
 H   -2.490214    2.700186    0.318895
 H   -3.176035    2.182798   -1.228301
 H   -6.241122    0.829483    1.876922
 H   -9.614561   -1.485412    0.578356
 H    4.338715    0.608672   -1.551991
 H    1.150834    3.865586    0.388336
 H    4.258856    0.151211    1.448196
 H   -3.876275    1.100231    1.552864
 H   -4.916451    2.064565    0.477693
 H   -8.562071    0.089769    2.190198
 H   -8.287251   -2.311897   -1.358355
 H    6.659857   -0.166956    1.474255
 H   -5.952672   -1.565367   -1.674847
 H    6.732175   -1.657376   -0.887922
 H    6.776856   -2.755310    1.291489
 H    5.544677   -3.501030    0.240773
 H    3.960528    2.267231    0.404544
 H    6.706053    1.600867   -0.285714
 H    4.578373   -3.057667    2.253314
