39 
6cbh_ligand_xtb.xyz
 C  -41.512262   12.535811   -2.380210
 C  -42.872080   12.620033   -2.490651
 C  -43.452907   13.307237   -3.568153
 C  -42.666738   13.899081   -4.516571
 C  -34.534586   13.578109   -7.387833
 C  -34.847142   14.938747   -7.337257
 C  -36.099851   15.359416   -6.951982
 C  -37.095616   14.439643   -6.622173
 C  -36.809719   13.069832   -6.719933
 C  -35.531254   12.659034   -7.080858
 C  -33.197991   13.139089   -7.760067
 C  -32.013606   13.857783   -7.734156
 N  -31.035474   13.039356   -8.164510
 N  -31.486980   11.828041   -8.480524
 C  -32.777263   11.874637   -8.239640
 C  -37.854317   12.031469   -6.535683
 O  -37.387984   10.949356   -5.895408
 O  -38.985077   12.100049   -6.944085
 O  -38.294069   14.952475   -6.246049
 C  -39.063397   14.314984   -5.301573
 C  -40.426337   14.414181   -5.404284
 C  -41.260139   13.829075   -4.433062
 C  -40.673651   13.134335   -3.342416
 C  -39.267247   13.072013   -3.256217
 C  -38.475622   13.650280   -4.205536
 F  -33.542097   10.813604   -8.464017
 H  -41.058721   12.008331   -1.552834
 H  -43.509400   12.158642   -1.750535
 H  -44.529337   13.363234   -3.640413
 H  -43.110019   14.426757   -5.348399
 H  -34.099516   15.671049   -7.600011
 H  -36.340341   16.409656   -6.896044
 H  -35.332235   11.600731   -7.130278
 H  -31.811814   14.863391   -7.427973
 H  -30.053256   13.239801   -8.263440
 H  -38.082115   10.274199   -5.838799
 H  -40.858503   14.930731   -6.246674
 H  -38.817991   12.559345   -2.417378
 H  -37.398345   13.610466   -4.123375
