39 
6cbh_ligand_dft.xyz
 C  -41.399551   12.852951   -2.118148
 C  -42.768096   12.903727   -2.159477
 C  -43.425491   13.407162   -3.308121
 C  -42.702945   13.848726   -4.385203
 C  -34.529219   13.512641   -7.290284
 C  -34.858863   14.835154   -6.973076
 C  -36.169704   15.199145   -6.708363
 C  -37.189291   14.253517   -6.758501
 C  -36.888030   12.921897   -7.085405
 C  -35.558696   12.571264   -7.333431
 C  -33.141609   13.132110   -7.581098
 C  -32.104832   13.930251   -8.033043
 N  -31.017142   13.140321   -8.146398
 N  -31.248614   11.857874   -7.807205
 C  -32.517269   11.866520   -7.473607
 C  -37.957361   11.897565   -7.251268
 O  -37.476553   10.641063   -7.149049
 O  -39.121830   12.120794   -7.480329
 O  -38.455267   14.698184   -6.504404
 C  -39.145834   14.197709   -5.423803
 C  -40.512739   14.253496   -5.473937
 C  -41.282569   13.811012   -4.372054
 C  -40.622681   13.302001   -3.218060
 C  -39.205811   13.262671   -3.209067
 C  -38.474515   13.703374   -4.281050
 F  -33.100775   10.744988   -7.072106
 H  -40.888071   12.466754   -1.239878
 H  -43.353851   12.558060   -1.313072
 H  -44.510742   13.441700   -3.331702
 H  -43.207128   14.233431   -5.267734
 H  -34.077184   15.586503   -6.904889
 H  -36.428237   16.218161   -6.441974
 H  -35.335326   11.540906   -7.580700
 H  -32.077288   14.978650   -8.291976
 H  -30.096390   13.395972   -8.462399
 H  -38.234304   10.056673   -7.309150
 H  -40.995693   14.620010   -6.373516
 H  -38.695464   12.882205   -2.328074
 H  -37.390036   13.678860   -4.257447
