27 
6ccl_ligand_dft.xyz
 C    1.786401    0.582011    0.359516
 C    1.796902    0.383543   -1.021624
 C    2.808233   -0.363272   -1.615251
 C   -1.041165   -1.273824    0.764033
 C   -1.305244    0.027527    0.354857
 C   -2.043992   -2.191071    0.486580
 C   -3.218115   -1.778693   -0.169060
 N   -3.471693   -0.537146   -0.570522
 C   -2.511379    0.349573   -0.304341
 N   -2.537693    1.695743   -0.626284
 C   -1.403057    2.150296   -0.177297
 N   -0.604624    1.211973    0.428818
 C    0.703294    1.414973    1.015587
 C    2.797269    0.018884    1.136774
 C    3.813888   -0.724556    0.542827
 C    3.820544   -0.917350   -0.834911
 H    1.001676    0.803172   -1.631997
 H    2.803848   -0.516206   -2.690145
 H   -0.114254   -1.556844    1.252767
 H   -1.929278   -3.232703    0.767013
 H   -3.993251   -2.512542   -0.379433
 H   -1.073913    3.180381   -0.251572
 H    0.931418    2.482564    0.920620
 H    0.656417    1.191853    2.087984
 H    2.790551    0.159844    2.215275
 H    4.595138   -1.159343    1.158968
 H    4.608238   -1.502420   -1.299701
