34 
6ce6_ligand_xtb.xyz
 O   -6.626460    1.963628   -0.348125
 C   -5.294074    0.576594    1.076776
 C   -4.773609   -0.773907    0.563111
 C   -3.309514   -0.793494    0.314623
 C   -1.266031   -0.056377   -0.090917
 C   -0.261532    0.868093   -0.328798
 C    1.019576    0.382665   -0.531584
 C    3.185074    0.468751   -0.925025
 C    4.527157    1.031934   -1.209635
 C    5.630631    0.441231   -0.318160
 C    5.369731    0.802880    1.138966
 O    4.582484   -0.047792    1.813938
 O    5.810147    1.783687    1.659980
 N    2.123936    1.147038   -0.772073
 S    2.962844   -1.305821   -0.793643
 C    1.277384   -1.015753   -0.496467
 C    0.287806   -1.947725   -0.258455
 C   -0.984377   -1.447349   -0.056795
 N   -2.581968    0.243616    0.124959
 S   -2.447592   -2.330581    0.261403
 C   -5.527462    1.592573   -0.043550
 O   -4.438578    2.044295   -0.652162
 H   -4.589347    0.995600    1.798080
 H   -6.253677    0.421369    1.570216
 H   -5.292662   -1.037430   -0.365190
 H   -5.007299   -1.556958    1.288859
 H   -0.464455    1.924736   -0.357512
 H    4.473617    2.113208   -1.071083
 H    4.777213    0.830732   -2.255740
 H    6.585577    0.879652   -0.607795
 H    5.680660   -0.642678   -0.448289
 H    4.274296   -0.790728    1.272900
 H    0.493661   -3.005127   -0.232616
 H   -3.620684    1.584243   -0.339774
