26 
6cea_ligand_xtb.xyz
 C   -2.857599    0.513860    0.726256
 O   -4.421602   -1.112184   -0.071238
 C   -2.032025    1.465365   -0.156068
 C   -0.551189    1.214549   -0.106482
 C    0.361667    2.291127   -0.128978
 C    1.703186    2.030698   -0.085724
 C    2.154711    0.695631   -0.018013
 C    3.514266    0.331652    0.033031
 C    3.872096   -0.986867    0.090450
 C    2.892237   -1.993131    0.098673
 C    1.562810   -1.675570    0.052179
 C    1.167159   -0.324590   -0.005599
 C   -3.269845   -0.782635    0.024702
 O   -2.281335   -1.518114   -0.453186
 N   -0.147997   -0.030524   -0.048597
 H   -3.776503    1.010856    1.038447
 H   -2.287398    0.250462    1.620661
 H   -2.220698    2.495152    0.152534
 H   -2.365147    1.373482   -1.195115
 H   -0.008773    3.303391   -0.180224
 H    2.427265    2.833351   -0.100715
 H    4.262590    1.111175    0.025013
 H    4.914726   -1.265000    0.128753
 H    3.200173   -3.027121    0.141959
 H    0.797700   -2.436385    0.056044
 H   -1.389297   -1.073852   -0.298342
