29 
6cec_ligand_ani.xyz
 O   -2.481200   -1.883212    0.812199
 O   -4.513443   -1.004383    0.684667
 C   -2.035595    0.971908   -0.556946
 C   -3.385934   -1.064058    0.260305
 C    1.555071   -2.281603   -0.305243
 C    2.882359   -2.586195   -0.121108
 C    3.814989   -1.567214    0.164409
 C   -2.921860   -0.230165   -0.930626
 C   -0.590724    0.599389   -0.317191
 N   -0.205182   -0.643316   -0.388931
 C    1.122923   -0.939953   -0.214048
 C    2.052041    0.082106    0.070959
 C    3.407044   -0.256123    0.260321
 N    1.652640    1.394809    0.168490
 C    0.392181    1.623023   -0.022483
 O   -0.098573    2.872093    0.042168
 C    0.834312    3.906952    0.324874
 H   -1.603876   -1.732500    0.393086
 H   -2.433872    1.492020    0.320381
 H   -2.065590    1.702187   -1.371287
 H    0.810358   -3.043266   -0.520885
 H    3.217266   -3.617479   -0.193445
 H    4.861984   -1.821625    0.310849
 H   -2.384267   -0.861541   -1.647131
 H   -3.836188    0.131032   -1.407588
 H    4.106702    0.544992    0.482313
 H    1.318800    3.740937    1.291956
 H    1.610209    3.952329   -0.445469
 H    0.251162    4.828083    0.338706
