29 
6cee_ligand_dft.xyz
 C    2.283008   -2.805583   -0.130736
 C   -3.303573   -0.788592    0.239855
 C    0.810077   -0.894307   -0.219326
 N   -0.477963   -0.413721   -0.382634
 C   -0.683756    0.851939   -0.314784
 C   -3.120549    0.324274   -0.786690
 O    0.137213    3.054436    0.002245
 C    0.381335    1.857675   -0.067467
 C   -2.075023    1.397480   -0.491013
 O   -3.068648   -0.478901    1.535173
 O   -3.710558   -1.880391   -0.050277
 C    1.898765   -0.031540    0.009182
 N    1.654605    1.337447    0.077734
 C    2.746156    2.270825    0.315869
 C    3.182907   -0.572640    0.162705
 C    3.362859   -1.944740    0.091392
 C    1.015196   -2.277805   -0.284691
 H    2.440220   -3.877679   -0.180447
 H   -4.098603    0.806719   -0.906208
 H   -2.894642   -0.178231   -1.728899
 H   -2.057365    2.126735   -1.309513
 H   -2.333002    2.010645    0.385147
 H   -2.718256    0.417289    1.611473
 H    2.320431    3.272291    0.328442
 H    3.221937    2.061288    1.278356
 H    3.489700    2.196669   -0.482951
 H    4.036693    0.070814    0.338388
 H    4.362093   -2.351421    0.212779
 H    0.145820   -2.904270   -0.455178
