23 
6cef_ligand_dft.xyz
 C   -2.887699    0.496524    0.756034
 C   -1.881289    1.395045    0.011419
 C   -0.468526    0.884330    0.018873
 C    3.248467   -1.825144    0.121584
 C    1.220431   -0.557489    0.089308
 O   -4.602867   -0.782171   -0.323245
 C   -3.432421   -0.686148   -0.049084
 O   -2.550376   -1.614098   -0.424447
 S    0.887805    1.984141   -0.156414
 C    1.971780    0.619061   -0.070042
 N   -0.152916   -0.363755    0.135902
 C    3.364463    0.588278   -0.133352
 C    3.990904   -0.645105   -0.035862
 C    1.865772   -1.793292    0.185546
 H   -3.758782    1.095199    1.025642
 H   -2.431366    0.126570    1.681628
 H   -1.892073    2.389816    0.468684
 H   -2.198513    1.536788   -1.029926
 H    3.766662   -2.775914    0.193437
 H   -1.640693   -1.362609   -0.140007
 H    3.941635    1.498653   -0.255873
 H    5.073995   -0.696647   -0.083054
 H    1.279328   -2.698031    0.305765
