68 
6cf7_ligand_xtb.xyz
 C   -8.282679   -1.787566   -0.041244
 C   -8.610903   -0.423805    0.101177
 C   -7.621188    0.547218    0.128593
 C   -6.308450    0.110458    0.012576
 C   -5.996489   -1.261025   -0.128431
 C   -2.350237    1.522035   -0.068833
 C   -1.832409   -0.811138   -0.278877
 C   -0.491736   -0.450427   -0.308869
 C  -12.054497    1.031679    0.459509
 C  -10.548857    1.125072    0.357045
 O   -9.938196    2.164345    0.397789
 N   -9.963716   -0.109483    0.214197
 C   -6.982550   -2.230410   -0.158215
 O   -4.648340   -1.370196   -0.213996
 N   -5.131962    0.806472    0.009570
 C   -4.202344   -0.088983   -0.121764
 C   -2.787933    0.198306   -0.163731
 C   -0.990346    1.765364   -0.095357
 N   -0.075971    0.814166   -0.212365
 C    0.525031   -1.541488   -0.327047
 O    0.290820   -2.623423    0.169897
 N    1.745647   -1.303820   -0.909466
 C    2.814794   -2.238386   -0.649516
 C    3.775255   -1.624900    0.370197
 C    2.231888   -0.064805   -1.452823
 C    3.183928    0.590453   -0.451804
 N    4.301282   -0.333925   -0.140082
 C    5.312304    0.271938    0.784933
 C    6.506804   -0.612677    0.849151
 N    6.965387   -1.319949   -0.181903
 N    7.307213   -0.735625    1.913933
 N    8.267268   -1.511341    1.555162
 N    8.062954   -1.855607    0.316565
 C    8.937441   -2.711300   -0.418416
 C    5.760244    1.633377    0.291764
 C    6.397230    1.751962   -0.940028
 C    6.824207    2.990706   -1.382984
 C    6.626814    4.114361   -0.596420
 C    6.002589    3.997419    0.633963
 C    5.567599    2.760501    1.078857
 H   -9.082780   -2.513459   -0.058341
 H   -7.855194    1.591228    0.236397
 H   -3.072826    2.314439    0.029160
 H   -2.114580   -1.850066   -0.336771
 H  -12.336300    0.442567    1.329862
 H  -12.466840    0.562414   -0.431243
 H  -12.466044    2.031619    0.558733
 H  -10.588023   -0.903931    0.189902
 H   -6.746455   -3.276257   -0.265498
 H   -0.598674    2.770630   -0.016575
 H    3.337209   -2.480366   -1.580911
 H    2.371473   -3.149974   -0.240485
 H    3.242697   -1.430762    1.303897
 H    4.607837   -2.300690    0.567725
 H    2.751971   -0.270559   -2.396619
 H    1.400007    0.613944   -1.635840
 H    2.638430    0.805393    0.469268
 H    3.589371    1.519850   -0.852863
 H    4.808248   -0.533869   -1.013275
 H    4.872687    0.361713    1.782371
 H    8.395086   -3.589459   -0.769523
 H    9.742591   -3.009830    0.248846
 H    9.343634   -2.178349   -1.278674
 H    6.579661    0.874470   -1.546166
 H    7.319142    3.076522   -2.337591
 H    6.968256    5.077889   -0.939841
 H    5.855959    4.868464    1.252489
 H    5.089407    2.670768    2.042325
