65 
6cfc_ligand_ani.xyz
 C   -1.390047    1.221010   -0.393093
 C   -0.608026    1.767180    0.801774
 C    0.711852    2.425131    0.397587
 C    1.483185    1.482524   -0.521514
 C    0.607856    1.091751   -1.708646
 O   -0.531677    0.418135   -1.185047
 O   -2.404105    0.415723    0.121697
 N   -1.359849    2.650633    1.668556
 C   -2.523577    3.311107    1.398965
 O   -3.126644    3.227648    0.339235
 C   -3.024199    4.163964    2.549356
 O    1.418160    2.686430    1.590717
 O    2.634994    2.218878   -0.986043
 S    4.075447    1.538338   -0.852588
 O    5.030163    2.511586   -1.274894
 O    4.023308    0.222281   -1.467684
 O    4.201664    1.339412    0.719051
 C    1.276134    0.160939   -2.711292
 O    1.758390   -1.013874   -2.099102
 C   -4.577690   -0.526319    0.117961
 C   -3.473863    0.096471   -0.769332
 C   -3.099204   -1.039230   -1.725251
 C   -3.180312   -2.273300   -0.822278
 N   -4.381556   -2.024762    0.029530
 C   -6.009434   -0.192285   -0.302937
 O   -6.364061   -1.135166   -1.307679
 C   -2.025358   -2.494749    0.179296
 O   -2.323708   -2.840299    1.318247
 N   -0.744616   -2.351995   -0.248330
 C    0.338248   -2.228587    0.711728
 C    1.558366   -3.007247    0.223966
 S    3.030689   -2.598508    1.120817
 O    4.135847   -3.403569    0.650400
 O    3.152340   -1.145046    1.197449
 O    2.664794   -3.076407    2.619245
 H   -1.802156    2.026119   -1.013195
 H   -0.333420    0.878126    1.388703
 H    0.505231    3.363189   -0.148741
 H    1.771082    0.582663    0.034212
 H    0.287524    2.006036   -2.237340
 H   -0.843497    2.926230    2.492382
 H   -3.225629    3.547219    3.432362
 H   -3.945933    4.658297    2.241571
 H   -2.288222    4.925587    2.832025
 H    2.338568    2.882734    1.360827
 H    3.995822    0.410271    0.974072
 H    0.521608   -0.127450   -3.453650
 H    2.073971    0.700076   -3.232810
 H    2.675408   -0.824125   -1.828030
 H   -4.398030   -0.205748    1.140806
 H   -3.796749    1.017491   -1.278042
 H   -3.870500   -1.119259   -2.496720
 H   -2.131613   -0.897326   -2.203099
 H   -3.313288   -3.194232   -1.396466
 H   -5.244900   -2.418175   -0.389008
 H   -4.164144   -2.435851    0.960756
 H   -6.070799    0.839292   -0.679989
 H   -6.681212   -0.275258    0.565437
 H   -7.260016   -0.947612   -1.611035
 H   -0.580033   -1.902421   -1.140340
 H    0.600008   -1.172016    0.859171
 H   -0.020668   -2.621981    1.665501
 H    1.791384   -2.744182   -0.813103
 H    1.422856   -4.089917    0.295750
 H    3.152020   -3.898227    2.795582
