72 
6chh_ligand_ani.xyz
 C   -2.453009    0.994362   -0.940293
 C    2.507446   -3.122732   -1.427397
 C   -3.033623   -0.277648   -1.002404
 C   -4.385029   -0.351960   -0.636856
 C    3.405075   -0.898856   -2.255741
 C    3.975150   -0.156377    0.393955
 C   -1.045435   -0.491060   -1.712158
 C    4.217788    0.725694   -0.664422
 C    3.944106    0.351619   -1.978044
 C    3.160156   -1.794293   -1.213906
 C    3.474413   -1.422639    0.093971
 N   -5.036564    0.753030   -0.260180
 C    4.165147    0.275480    1.833387
 N   -3.079760    2.110397   -0.556408
 N   -0.832269   -3.444363    0.176194
 C   -0.996997   -2.665495    1.432929
 C   -2.451951   -2.224569    1.499713
 O   -2.884491   -1.251547    2.067838
 C    0.013758   -1.524950    1.523600
 C    1.285428   -0.014473    3.153687
 N    1.722563    0.945331    2.092225
 C    3.161854    1.348007    2.280532
 O   -3.209171   -3.110472    0.841737
 C   -0.009644   -0.774500    2.855012
 C   -0.008794    1.744552   -1.430409
 C   -4.352949    1.902837   -0.240212
 C   -0.398545    3.230950   -1.370625
 C   -0.278827    3.564736    0.118568
 C    0.885566    2.667453    0.554243
 C    0.822663    2.146404    1.986555
 N    2.695865   -3.709206   -2.643061
 N   -5.067625   -1.568455   -0.588768
 N   -2.116279   -1.206132   -1.474240
 N   -1.156860    0.841381   -1.405438
 O    1.825223   -3.652477   -0.555281
 O    0.582664    4.024875   -2.036424
 O   -0.069014    4.923831    0.381380
 O    0.822488    1.504631   -0.308135
 H    3.148945   -1.169481   -3.277304
 H   -0.104528   -0.880689   -2.070534
 H    4.623201    1.714239   -0.457659
 H    4.143844    1.044595   -2.793135
 H    3.297578   -2.146381    0.884175
 H    5.171261    0.687792    1.971735
 H    4.096183   -0.600082    2.488142
 H   -1.365057   -4.326120    0.246733
 H    0.160823   -3.661009    0.008804
 H   -1.220736   -2.892082   -0.623121
 H   -0.844388   -3.341925    2.283267
 H   -0.138030   -0.828366    0.692899
 H    0.998238   -1.980945    1.377590
 H    2.088826   -0.741901    3.298577
 H    1.181588    0.534433    4.100919
 H    1.652264    0.510287    1.148265
 H    3.334940    2.259054    1.700791
 H    3.321698    1.606303    3.335646
 H   -4.106082   -2.721389    0.731464
 H   -0.144285   -1.490502    3.675380
 H   -0.878791   -0.113691    2.894244
 H    0.554851    1.504548   -2.340227
 H   -4.922007    2.774202    0.071461
 H   -1.403299    3.432973   -1.745739
 H   -1.195333    3.242956    0.620373
 H    1.830085    3.199349    0.367003
 H    1.100948    2.916689    2.713003
 H   -0.194456    1.813995    2.214164
 H    2.382124   -4.665558   -2.722712
 H    3.485572   -3.437655   -3.207619
 H   -6.072882   -1.422520   -0.539567
 H   -4.803031   -2.184243   -1.354919
 H    0.307924    4.151104   -2.951988
 H    0.444443    5.252160   -0.373420
