58 
6chn_ligand_ani.xyz
 C    6.621229   -1.784619   -0.462538
 C    5.257870   -0.707194   -2.144856
 C    4.845415    0.730615   -1.835763
 O    7.648045   -1.552343   -1.069519
 O    3.290918    2.124604   -0.721910
 O   -5.047632   -3.003945    1.089079
 C   -0.241010    2.039872    0.371826
 C    0.981598    1.591524   -0.130525
 C   -1.324086    1.014548    0.659317
 C   -1.367507    0.612971    2.153117
 C   -0.090069    0.056189    2.609780
 C   -3.692973    0.681847    0.048174
 C   -5.617340   -2.182154    0.412418
 C   -6.939638   -2.296369   -0.202699
 C   -7.493593   -1.309034   -0.944549
 C   -8.848315   -1.402309   -1.584408
 C   -5.566940    0.063258   -0.612865
 N   -6.808380   -0.124174   -1.152909
 N   -5.023404   -0.931463    0.122740
 N   -3.784186   -0.536000    0.561575
 N   -4.765205    1.103073   -0.689729
 N   -2.628513    1.519459    0.247522
 N    0.932117   -0.377362    2.933896
 C   -0.407979    3.387852    0.675067
 C    0.649321    4.275286    0.490005
 C    1.872184    3.829957    0.012887
 C    2.048292    2.475682   -0.286078
 C    3.568668    0.754966   -1.000909
 C    3.761174   -0.064846    0.280174
 C    4.178265   -1.490708   -0.077082
 N    5.367293   -1.478200   -0.917493
 O    6.589173   -2.395970    0.741094
 C    7.870127   -2.794811    1.229111
 H    4.511768   -1.183411   -2.796859
 H    6.224896   -0.749016   -2.646708
 H    5.641701    1.232414   -1.272816
 H    4.693815    1.298241   -2.761355
 H    1.095567    0.538836   -0.372256
 H   -1.080870    0.111336    0.082771
 H   -1.610898    1.494499    2.754247
 H   -2.148508   -0.134491    2.307942
 H   -7.470526   -3.226248   -0.034948
 H   -8.779266   -1.291489   -2.672226
 H   -9.300452   -2.372667   -1.368271
 H   -9.517775   -0.621393   -1.206951
 H   -7.208312    0.623569   -1.698975
 H   -2.616186    2.294053   -0.402651
 H   -1.358930    3.748680    1.061343
 H    0.514151    5.329548    0.718998
 H    2.708606    4.507288   -0.132052
 H    2.746018    0.338008   -1.600312
 H    4.543350    0.406952    0.886420
 H    2.854034   -0.080000    0.894761
 H    3.373397   -1.984802   -0.639477
 H    4.379998   -2.085132    0.811989
 H    8.348242   -3.486085    0.531480
 H    8.515570   -1.924653    1.365891
 H    7.680377   -3.285273    2.183236
