58 
6chn_ligand_dft.xyz
 C    6.823811   -1.634253   -0.414366
 C    5.430052   -0.473734   -2.028340
 C    4.869467    0.936463   -1.832630
 O    7.820133   -1.560689   -1.109691
 O    3.160322    2.232868   -0.831309
 O   -5.007041   -3.232184    0.380709
 C   -0.296230    1.902748    0.416002
 C    0.908893    1.556743   -0.195751
 C   -1.372253    0.844583    0.552083
 C   -1.271766    0.125871    1.924048
 C    0.005024   -0.573764    2.063256
 C   -3.781423    0.664398    0.163891
 C   -5.639305   -2.264281    0.030703
 C   -7.032084   -2.242313   -0.408832
 C   -7.679771   -1.113534   -0.783980
 C   -9.108198   -1.067266   -1.233163
 C   -5.720800    0.169794   -0.369023
 N   -7.021863    0.097390   -0.764557
 N   -5.075016   -0.964898    0.003762
 N   -3.788241   -0.643650    0.351168
 N   -4.950423    1.226797   -0.286622
 N   -2.689438    1.448884    0.421588
 N    1.020101   -1.125854    2.135756
 C   -0.465850    3.178874    0.949890
 C    0.566980    4.109181    0.844501
 C    1.768613    3.769153    0.243706
 C    1.952263    2.480679   -0.267589
 C    3.587086    0.884465   -1.013551
 C    3.832043    0.181809    0.320768
 C    4.410243   -1.214505    0.087849
 N    5.598792   -1.143616   -0.750462
 O    6.812167   -2.225131    0.801545
 C    8.064739   -2.762209    1.208938
 H    4.743462   -1.064291   -2.653996
 H    6.399255   -0.447207   -2.524974
 H    5.603313    1.554829   -1.303424
 H    4.674349    1.402764   -2.803894
 H    1.027523    0.553924   -0.590230
 H   -1.232727    0.079105   -0.224487
 H   -1.373481    0.862043    2.727667
 H   -2.083367   -0.603643    2.006300
 H   -7.542395   -3.196236   -0.421937
 H   -9.184455   -0.657448   -2.246567
 H   -9.542079   -2.067899   -1.233659
 H   -9.704454   -0.433663   -0.566869
 H   -7.480555    0.954845   -1.033712
 H   -2.713001    2.329650   -0.073049
 H   -1.388854    3.443737    1.457576
 H    0.437147    5.106614    1.253780
 H    2.586143    4.478319    0.169618
 H    2.831790    0.332148   -1.593620
 H    4.542037    0.783283    0.900676
 H    2.911086    0.091606    0.903835
 H    3.659923   -1.847487   -0.408777
 H    4.661428   -1.687556    1.034099
 H    8.412307   -3.517570    0.499924
 H    8.819784   -1.975712    1.285146
 H    7.884586   -3.211867    2.185647
