58 
6chn_ligand_xtb.xyz
 C    6.747659   -1.687132   -0.422358
 C    5.447037   -0.436028   -2.031480
 C    4.971162    0.971285   -1.671828
 O    7.781886   -1.514163   -1.024586
 O    3.267175    2.221234   -0.594042
 O   -4.989921   -3.170961    0.643787
 C   -0.288036    1.961132    0.350309
 C    0.953288    1.589020   -0.149337
 C   -1.373073    0.917303    0.422163
 C   -1.317916    0.218587    1.804133
 C   -0.025311   -0.367489    2.012156
 C   -3.755900    0.698762    0.048294
 C   -5.609696   -2.239297    0.192226
 C   -6.985530   -2.260681   -0.269061
 C   -7.634767   -1.180203   -0.758855
 C   -9.047446   -1.196841   -1.239288
 C   -5.706211    0.132482   -0.440900
 N   -6.993868    0.026198   -0.839801
 N   -5.049891   -0.961074    0.049223
 N   -3.786879   -0.581590    0.362028
 N   -4.930687    1.187294   -0.456949
 N   -2.686078    1.499440    0.237682
 N    1.016416   -0.821063    2.146845
 C   -0.480700    3.242197    0.843838
 C    0.564379    4.152419    0.809107
 C    1.799624    3.785007    0.321221
 C    2.014269    2.487054   -0.149925
 C    3.638641    0.890922   -0.925114
 C    3.813705    0.017116    0.321754
 C    4.313241   -1.368528   -0.087456
 N    5.537819   -1.259831   -0.847267
 O    6.672646   -2.367907    0.748074
 C    7.907149   -2.886772    1.213561
 H    4.740448   -0.900620   -2.729660
 H    6.435810   -0.404735   -2.491075
 H    5.704916    1.458784   -1.029129
 H    4.855653    1.570850   -2.574887
 H    1.075186    0.583815   -0.519976
 H   -1.199075    0.143302   -0.341529
 H   -1.515578    0.947820    2.593202
 H   -2.083671   -0.561617    1.825868
 H   -7.483744   -3.212819   -0.200855
 H   -9.091511   -0.913094   -2.290316
 H   -9.475427   -2.187436   -1.127029
 H   -9.648484   -0.487239   -0.671824
 H   -7.453933    0.848796   -1.198810
 H   -2.733239    2.384420   -0.243041
 H   -1.434095    3.528279    1.261363
 H    0.413441    5.154729    1.180981
 H    2.623867    4.479748    0.301617
 H    2.886545    0.446902   -1.594542
 H    4.544952    0.494110    0.976835
 H    2.877837   -0.082782    0.873022
 H    3.559072   -1.860523   -0.713778
 H    4.490383   -1.982071    0.793153
 H    8.335800   -3.571627    0.479004
 H    8.618614   -2.078603    1.395864
 H    7.680725   -3.411526    2.138405
