50 
6cho_ligand_xtb.xyz
 C   -1.883972    2.148854   -0.228409
 C   -1.235785    2.958130    0.696430
 C    0.140133    3.092999    0.656417
 O    2.249599    2.630208   -0.341987
 O   -2.044176   -0.041618    2.220710
 C    3.526510   -0.779269    0.131846
 C    2.664981    0.306426    0.156662
 C    3.047010   -2.121795    0.642527
 C    2.713360   -2.074571    2.131483
 C    0.646774   -2.155769   -0.071209
 C   -2.231787   -0.682277    1.211313
 C   -3.511089   -0.882916    0.558371
 C   -3.664656   -1.533045   -0.616414
 C   -4.969030   -1.696962   -1.322406
 C   -1.360725   -2.010464   -0.652941
 N   -2.577606   -2.083207   -1.237838
 N   -1.202977   -1.334479    0.524735
 N    0.100935   -1.430188    0.886269
 N   -0.232092   -2.529033   -1.059452
 N    1.912962   -2.611005   -0.130482
 C    4.806552   -0.621818   -0.382434
 C    5.219297    0.613326   -0.855011
 C    4.356222    1.691629   -0.851934
 C    3.065877    1.533756   -0.354052
 C    0.886527    2.421599   -0.298225
 C    0.242179    1.609102   -1.227220
 C   -1.128733    1.479401   -1.192219
 O   -3.233056    1.955456   -0.285569
 C   -4.017122    2.492788    0.755643
 H   -1.785984    3.479752    1.461757
 H    0.647223    3.720415    1.372529
 H    1.678155    0.197061    0.577280
 H    3.844816   -2.858496    0.484225
 H    3.576108   -1.712180    2.684403
 H    2.455830   -3.070232    2.483516
 H    1.868135   -1.417251    2.305116
 H   -4.362762   -0.451380    1.054936
 H   -5.156686   -2.747543   -1.541187
 H   -5.780606   -1.312658   -0.713680
 H   -4.953432   -1.150322   -2.264913
 H   -2.659232   -2.576776   -2.113465
 H    2.133061   -3.007877   -1.031301
 H    5.485566   -1.461979   -0.405451
 H    6.220847    0.733374   -1.240958
 H    4.660683    2.656300   -1.226050
 H    0.821312    1.081077   -1.971055
 H   -1.642324    0.860602   -1.912644
 H   -5.037728    2.171831    0.551522
 H   -3.694402    2.107695    1.727340
 H   -3.981211    3.586839    0.760903
