44 
6chq_ligand_ani.xyz
 C    4.818103   -1.679950   -0.489502
 C    3.972693   -1.992421   -1.555468
 C    2.678989   -1.495430   -1.641769
 C   -1.640723    2.354116   -0.286689
 C   -2.973925    0.853065   -0.929734
 C   -4.252022    0.150108   -1.284379
 C   -4.594011   -0.919095   -0.268171
 C   -4.492662   -2.271869   -0.582859
 C   -4.783813   -3.245153    0.369344
 C   -5.181796   -2.867036    1.647860
 C   -5.278477   -1.515860    1.971648
 C   -4.978419   -0.547455    1.019779
Cl    5.264480   -0.407115    1.869115
 C    4.287686   -0.838238    0.492369
 C    6.214050   -2.234318   -0.412052
 C    3.001380   -0.315758    0.425515
 C    2.187672   -0.637489   -0.659477
 N    0.870818   -0.161764   -0.771553
 C    0.398558    1.074507   -0.450540
 N   -0.956338    1.199283   -0.577672
 N   -1.005011    3.457539    0.130121
 C    0.315043    3.379279    0.228755
 C    1.034829    4.620968    0.677892
 C    1.072977    2.210917   -0.058724
 N   -1.809508    0.226125   -0.993271
 N   -2.946294    2.128360   -0.506544
 H    4.338483   -2.651933   -2.339419
 H    2.043580   -1.761148   -2.482776
 H   -4.156086   -0.293518   -2.282502
 H   -5.034028    0.914406   -1.331751
 H   -4.177385   -2.563376   -1.583540
 H   -4.703277   -4.298500    0.110945
 H   -5.415018   -3.623170    2.393507
 H   -5.587103   -1.216714    2.970407
 H   -5.043227    0.509632    1.274926
 H    6.430936   -2.866780   -1.277668
 H    6.957368   -1.430498   -0.380723
 H    6.348710   -2.835808    0.493393
 H    2.633851    0.316328    1.226930
 H    0.174292   -0.767354   -1.199066
 H    0.787215    5.459324    0.019806
 H    0.723510    4.893098    1.691271
 H    2.116029    4.468685    0.669510
 H    2.153544    2.224149    0.001444
