60 
6cjr_ligand_ani.xyz
 C   -3.610588   -0.704277   -0.037598
 C   -2.307413    1.359277   -0.518652
 C   -2.294057    2.773842   -0.651291
 N   -3.496101    4.783016   -1.291480
 C    0.144886    2.745340   -0.682277
 O   -4.621923    3.155581   -0.208284
 N   -3.502110    0.692135   -0.391090
 N    1.293372    0.559772   -0.616135
 C    0.116637    1.352333   -0.612956
 C   -1.091175    0.673108   -0.557204
 N    1.243774   -0.659549   -1.197352
 C   -3.369933   -2.491015    1.732854
 C   -4.800809   -2.954172    1.491858
 C   -5.230048   -2.651600    0.054542
 C   -5.050369   -1.170332   -0.279441
 C    2.449944   -1.168498   -1.072093
 C    3.301460   -0.300037   -0.358880
 C    2.510081    0.790296   -0.053794
 C    5.150607    0.700924    0.998541
 C    4.675165    2.672122    2.466461
 C   -1.061783    3.425663   -0.706273
 F    1.765405   -3.074144   -2.248238
 O    5.358002   -1.450093   -0.054519
 F    3.842401   -2.464282   -2.446078
 F    3.152251   -3.356774   -0.599647
 O   -4.847450   -4.343013    1.775566
 C   -3.564080    3.552843   -0.692810
 C   -3.198574   -1.006586    1.413935
 C    2.954880    1.921395    0.810667
 C    4.053080    1.450711    1.791271
 C    4.667324   -0.475840    0.164236
 C    3.452580    0.526880    2.860702
 C    2.801906   -2.532184   -1.600320
 H   -2.953325   -1.279248   -0.708339
 H   -4.390721    5.231898   -1.425071
 H   -2.790888    4.962166   -1.989138
 H    1.076858    3.294849   -0.751506
 H   -4.281966    1.298001   -0.154609
 H   -1.054042   -0.409957   -0.521363
 H   -2.706313   -3.092315    1.096053
 H   -3.091442   -2.702734    2.771086
 H   -5.466535   -2.401844    2.178746
 H   -6.275214   -2.952754   -0.097462
 H   -4.619138   -3.266766   -0.620877
 H   -5.332097   -0.968269   -1.319419
 H   -5.718577   -0.568685    0.357468
 H    5.935338    0.342783    1.670803
 H    5.618328    1.409432    0.299773
 H    5.462951    2.374367    3.168551
 H    5.120144    3.351958    1.730131
 H    3.919817    3.233219    3.028761
 H   -1.043215    4.511949   -0.738404
 H   -5.757274   -4.637314    1.642478
 H   -3.822782   -0.406606    2.093455
 H   -2.161126   -0.694375    1.584982
 H    2.118431    2.365568    1.364104
 H    3.382166    2.707866    0.172737
 H    3.014290   -0.375964    2.421004
 H    4.226838    0.212363    3.570406
 H    2.669080    1.048621    3.422726
