42 
6cjv_ligand_dft.xyz
 C   -3.765070   -0.734780   -0.693534
 C   -2.864878   -1.954901   -0.485745
 C   -1.719371   -1.629505    0.469181
 C   -0.981534   -0.400382   -0.044265
 C   -2.889056    0.454824   -1.106881
 C   -3.589959    1.795435   -1.286175
 C    1.186485    0.509551    0.373477
 C    3.519544    0.195577    0.845467
 C    2.206935    0.541575    1.541783
 C    3.034550   -0.798718   -0.222057
 C    0.948070    1.862186   -0.300933
 C    3.873768   -0.854324   -1.484942
 O   -1.864599    0.682377   -0.155718
 O   -3.610603   -3.055988   -0.055882
 O   -0.879001   -2.763011    0.493384
 O   -2.671167    2.770626   -1.716265
 O    0.010591   -0.072788    0.880131
 O    1.753016   -0.313596   -0.625313
 O    1.950506   -0.482118    2.468607
 O    4.046443    1.378984    0.285687
Cl   -4.728405   -0.374327    0.788694
Cl    5.559332   -1.355535   -1.101575
Cl    0.168033    3.063581    0.777204
 H   -4.496912   -0.953310   -1.474484
 H   -2.410715   -2.160215   -1.472719
 H   -2.125116   -1.404103    1.464859
 H   -0.522274   -0.627807   -1.018923
 H   -2.430183    0.188401   -2.075148
 H   -4.079401    2.081581   -0.347343
 H   -4.357409    1.706218   -2.060716
 H    4.213312   -0.267729    1.553345
 H    2.251968    1.528604    2.014802
 H    2.933986   -1.795724    0.222995
 H    0.300756    1.737146   -1.169952
 H    1.911354    2.270082   -0.606226
 H    3.471002   -1.575448   -2.195769
 H    3.917646    0.132445   -1.945509
 H   -2.969009   -3.727888    0.213457
 H   -0.131098   -2.556060    1.068936
 H   -2.062485    2.920017   -0.979094
 H    1.001632   -0.453273    2.653096
 H    4.962257    1.208729    0.031598
