43 
6ckc_ligand_ani.xyz
 C   -1.998273   -1.556904   -1.195242
 C   -3.221138   -1.976560   -0.769392
 C    6.174417   -0.198295    1.182019
 C    3.822017   -0.601193    1.556158
 C    4.721104   -0.688514   -0.675804
 C    5.089999   -0.302905    2.048984
 C    5.988117   -0.393843   -0.184182
 C   -4.225483    1.508148    1.091675
 C   -3.806629   -0.883351   -0.045176
 C    3.630345   -0.794406    0.188755
 C   -2.872379    0.159840   -0.069380
 C   -5.004589   -0.588323    0.635892
 C    1.470546    1.379666   -0.400782
 C    0.016176    1.283525    0.042929
 C    1.682045    0.080610   -1.183452
 C   -0.625283    0.545033   -1.136895
 C    2.263715   -1.103822   -0.385730
 N   -3.043230    1.365009    0.481942
 N   -5.198048    0.612936    1.201795
 N   -1.761605   -0.265667   -0.757152
 N   -5.987214   -1.515020    0.778541
 O    0.382182   -0.324567   -1.632284
 O    1.620981    2.449374   -1.307047
 O   -0.529375    2.558267    0.234659
 O    1.378721   -1.471102    0.649815
 H   -1.238653   -2.043684   -1.791599
 H   -3.655729   -2.951761   -0.951371
 H    7.162871    0.033851    1.570252
 H    2.971668   -0.688886    2.227735
 H    4.572700   -0.839964   -1.744711
 H    5.229621   -0.152542    3.117087
 H    6.830763   -0.315433   -0.866886
 H   -4.404699    2.471978    1.556488
 H    2.161550    1.487125    0.448582
 H   -0.078739    0.659293    0.941266
 H    2.301166    0.294928   -2.061344
 H   -0.917273    1.257106   -1.920958
 H    2.371045   -1.936308   -1.102745
 H   -6.873534   -1.171051    1.118873
 H   -6.017627   -2.285508    0.129708
 H    1.021930    3.145968   -0.996703
 H   -1.487527    2.425621    0.400436
 H    0.532821   -1.679536    0.226596
