43 
6ckc_ligand_dft.xyz
 C   -1.979013   -1.502360   -1.305728
 C   -3.186476   -1.955501   -0.858183
 C    6.094834   -0.300698    1.222651
 C    3.728660   -0.664293    1.542262
 C    4.670205   -0.738987   -0.671445
 C    4.991622   -0.400020    2.065125
 C    5.930985   -0.471816   -0.149415
 C   -4.144608    1.446523    1.165404
 C   -3.751476   -0.894777   -0.079930
 C    3.559336   -0.833743    0.168785
 C   -2.831605    0.163160   -0.094749
 C   -4.930601   -0.646219    0.652323
 C    1.475915    1.421924   -0.362984
 C    0.012404    1.323481    0.066362
 C    1.679379    0.153598   -1.188387
 C   -0.610686    0.633731   -1.166615
 C    2.193564   -1.080658   -0.428525
 N   -2.990828    1.352879    0.515590
 N   -5.111683    0.530654    1.265261
 N   -1.748278   -0.220513   -0.831370
 N   -5.910807   -1.574843    0.793224
 O    0.383729   -0.181336   -1.723792
 O    1.640604    2.531615   -1.216100
 O   -0.489673    2.602016    0.318939
 O    1.291937   -1.458436    0.590602
 H   -1.242480   -1.974765   -1.936876
 H   -3.606645   -2.930390   -1.059865
 H    7.078847   -0.095840    1.633615
 H    2.867933   -0.750408    2.196273
 H    4.550083   -0.882417   -1.743087
 H    5.113417   -0.272208    3.136722
 H    6.786311   -0.402285   -0.814975
 H   -4.330280    2.386865    1.677895
 H    2.156206    1.471197    0.495601
 H   -0.077636    0.657198    0.933471
 H    2.346070    0.374149   -2.027230
 H   -0.937123    1.391196   -1.889899
 H    2.274955   -1.889498   -1.172145
 H   -6.780347   -1.256994    1.193281
 H   -5.943994   -2.367219    0.173534
 H    1.049966    3.216003   -0.863911
 H   -1.448214    2.482147    0.489355
 H    0.446700   -1.644914    0.160418
