37 
6ckl_ligand_ani.xyz
 C   -3.873918    0.284099    0.158045
 C   -2.489842   -0.212433   -0.077796
 C   -2.229365   -1.518360   -0.078421
 C   -0.839051   -2.071356   -0.204325
 C    0.184556   -0.904902   -0.086902
 C   -0.360641    0.298609   -0.864158
 C    0.493409    1.550140   -1.051848
 C    0.917684    2.304363    0.210292
 C    1.887092    1.552823    1.124916
 C    2.344612   -2.113846    0.002014
 C    3.737001   -2.205851   -0.580909
 N    1.484901   -1.274935   -0.626852
 O   -3.970042    1.619702    0.160127
 O   -4.819231   -0.452907    0.330617
 O   -0.661346   -3.051782    0.782468
 O   -1.562985    0.757393   -0.244617
 O    1.645884    1.241188   -1.821900
 O    1.596635    3.447001   -0.297094
 O    2.484202    2.536053    1.967938
 O    2.035112   -2.773260    0.995182
 H   -3.044775   -2.217272    0.049572
 H   -0.725247   -2.517653   -1.209296
 H    0.252832   -0.677935    0.981978
 H   -0.612387   -0.059297   -1.875117
 H   -0.132412    2.250139   -1.621356
 H    0.025037    2.606031    0.777106
 H    1.369782    0.807105    1.739084
 H    2.645100    1.053673    0.506840
 H    3.974922   -3.260759   -0.740543
 H    3.861359   -1.659237   -1.519854
 H    4.449312   -1.821155    0.155632
 H    1.847207   -0.646754   -1.337870
 H   -4.910036    1.809882    0.320264
 H    0.296909   -3.125071    0.970874
 H    2.187084    2.046699   -1.776067
 H    2.154776    3.751625    0.436974
 H    3.351180    2.217717    2.242534
