49 
6ckr_ligand_dft.xyz
 C   -7.177135   -2.872493   -0.936801
 N   -5.953424   -2.266236   -0.461310
 C   -5.519629   -1.003436   -0.663559
 N   -5.067668   -3.011573    0.220135
 C   -4.049983   -2.194860    0.452411
 C   -4.268883   -0.902249   -0.079187
 C   -3.386331    0.268080   -0.023139
 C   -2.014444    0.102972    0.120193
 C   -1.142926    1.203200    0.186089
 C   -3.910166    1.573202   -0.116584
 C   -3.070355    2.664710   -0.094379
 C   -1.686864    2.496085    0.051395
 C   -0.840025    3.696359    0.029955
 O   -1.258794    4.841931   -0.074657
 N    0.528180    3.457305    0.122545
 C    1.394694    4.627703    0.077506
 C    1.049125    2.197697    0.286343
 C    0.296535    1.072105    0.339776
 C    0.978148   -0.226582    0.562354
 C    2.089528   -0.563863   -0.212600
 C    0.557336   -1.113087    1.562714
 C    1.236714   -2.305937    1.777317
 C    2.368004   -2.619101    1.030265
 C    2.795915   -1.739932    0.036050
 N    3.947971   -2.039497   -0.742256
 S    5.295076   -1.042198   -0.696442
 O    6.325752   -1.776776   -1.406461
 O    4.887368    0.292064   -1.096069
 C    5.741938   -0.955690    1.035381
 H   -7.641669   -3.427971   -0.120369
 H   -7.854437   -2.086226   -1.274689
 H   -6.968952   -3.555399   -1.764925
 H   -6.109354   -0.285863   -1.216059
 H   -3.197398   -2.549664    1.016346
 H   -1.603399   -0.900320    0.149176
 H   -4.983389    1.717180   -0.199526
 H   -3.453360    3.675706   -0.184251
 H    1.215040    5.185815   -0.843670
 H    1.181142    5.287892    0.921704
 H    2.435217    4.302475    0.113911
 H    2.128443    2.154417    0.388402
 H    2.410147    0.082658   -1.021141
 H   -0.297680   -0.857644    2.181069
 H    0.900890   -2.987373    2.552921
 H    2.915887   -3.538822    1.218725
 H    4.231271   -3.013085   -0.759859
 H    6.031760   -1.949744    1.379439
 H    6.583553   -0.265657    1.118393
 H    4.887884   -0.580246    1.602164
