50 
6cmj_ligand_dft.xyz
 C   37.370606   50.514167    6.748906
 N   35.674788   45.577943   11.304465
 C   39.593276   50.748076    8.967619
 C   38.858791   49.753429    9.610875
 C   39.443453   48.648769   10.235622
 C   41.597479   49.539430    9.637900
 C   41.000378   50.637883    9.004497
 C   41.882811   51.678297    8.415809
 C   38.592927   47.626830   10.855088
 C   38.874252   46.881598   11.972543
 C   34.877236   45.918328   10.297271
 C   35.194543   46.864791    9.298533
 C   37.277868   47.214545   10.426648
 C   34.238830   47.168434    8.206223
 C   33.181052   48.781200    6.733362
 C   34.058966   48.486814    7.770274
 C   37.427782   51.615448    7.812207
 C   36.813113   52.909679    7.271922
 C   38.869322   51.888938    8.273701
 C   40.837920   48.550035   10.236572
 O   41.556986   52.798656    8.086136
 O   43.163487   51.264387    8.282612
 N   37.827326   46.041217   12.262825
 C   36.834042   46.227091   11.333621
 C   36.423703   47.513937    9.365444
 C   33.507354   46.153627    7.580183
 C   32.622365   46.448408    6.548172
 C   32.457883   47.762213    6.118911
 H   37.845686   49.588419    7.089772
 H   36.336122   50.281782    6.471600
 H   37.896738   50.836118    5.841641
 H   37.779878   49.839493    9.641641
 H   42.678435   49.463131    9.644878
 H   39.747588   46.911055   12.608846
 H   33.908826   45.422971   10.271978
 H   33.053846   49.810974    6.412110
 H   34.599307   49.290937    8.263295
 H   36.816847   51.307283    8.671762
 H   36.799235   53.694626    8.035963
 H   37.388135   53.284661    6.416482
 H   35.783219   52.744220    6.936531
 H   39.450558   52.205022    7.403079
 H   38.879466   52.759433    8.942790
 H   41.323525   47.688904   10.686123
 H   43.643369   52.027769    7.925521
 H   37.765429   45.406429   13.041885
 H   36.709152   48.215829    8.587897
 H   33.651625   45.121652    7.888093
 H   32.067683   45.646142    6.070466
 H   31.769795   47.990976    5.310706
