66 
6cn5_ligand_ani.xyz
 C    1.480455    3.041774    0.172314
 C    1.755522    0.502085    0.644861
 C   -0.431198    1.880410    0.294541
 C    1.007292    1.780885    0.397690
 C   -1.484545    0.967606    0.418399
 C    4.715871   -2.157322   -0.661102
 C    6.170864   -1.695177   -0.598893
 O    4.426083   -3.104139   -1.382480
 C   -5.116805    0.532933   -0.051164
 O   -5.660520    1.527198   -0.507374
 C   -0.735412    3.226719   -0.005547
 N    0.449471    3.924402   -0.072647
 C   -2.049477    3.662854   -0.189388
 C   -2.790363    1.394057    0.224225
 C    1.612529   -0.499669   -0.516403
 C    3.247753    0.713255    0.935243
 C   -3.072353    2.741307   -0.076894
 N   -3.816700    0.435502    0.342997
 C    2.354145   -1.796307   -0.215069
 C    3.928433   -0.622164    1.212302
 N    3.755205   -1.517785    0.079298
 C   -5.880882   -0.755705    0.121553
 N   -5.229132   -1.796954    0.645017
 C   -5.905438   -2.938378    0.794848
 C   -7.238601   -3.090664    0.429446
 C   -7.900405   -1.991522   -0.119098
 C   -7.209681   -0.793017   -0.276939
 C   -9.282958   -2.085129   -0.521676
 N  -10.391643   -2.156465   -0.846436
 C    6.407086   -0.193333   -0.810523
 C    7.908618    0.076479   -0.943129
 C    8.667723   -0.435002    0.284769
 C    8.411558   -1.926787    0.519964
 C    6.913669   -2.227626    0.638450
 C    0.588073    5.330679   -0.369015
 H    2.503166    3.405705    0.169087
 H    1.309076    0.027010    1.535787
 H   -1.290357   -0.077243    0.655128
 H    6.609041   -2.209366   -1.463174
 H   -2.271996    4.702292   -0.423048
 H    2.024184   -0.046694   -1.426346
 H    0.555186   -0.706391   -0.716341
 H    3.388371    1.385835    1.788847
 H    3.719480    1.180265    0.059959
 H   -4.101727    3.037597   -0.225642
 H   -3.555148   -0.479581    0.691145
 H    2.328582   -2.491579   -1.054419
 H    1.896944   -2.296428    0.653043
 H    3.463243   -1.081822    2.098608
 H    4.983713   -0.497248    1.447417
 H   -5.355068   -3.771159    1.225710
 H   -7.747745   -4.038524    0.567358
 H   -7.675645    0.093097   -0.695920
 H    6.023933    0.392473    0.032372
 H    5.871894    0.150360   -1.704383
 H    8.090296    1.147844   -1.088598
 H    8.288184   -0.431516   -1.841666
 H    8.338958    0.130814    1.169416
 H    9.742721   -0.245766    0.176274
 H    8.937618   -2.269979    1.418357
 H    8.824727   -2.499426   -0.323060
 H    6.745699   -3.307733    0.736062
 H    6.528134   -1.763935    1.555154
 H    1.649324    5.590483   -0.358153
 H    0.181067    5.564308   -1.359435
 H    0.070385    5.941476    0.379096
