67 
6cn6_ligand_dft.xyz
 N    3.664257    0.279155   -0.250024
 C    2.726009    2.517482    0.062902
 N   -4.386773   -1.726297   -0.245871
 C    0.151970    1.439341   -0.228169
 C    0.374457    2.822687   -0.025672
 C   -1.818362    2.523596   -0.240708
 C   -3.175742   -1.991249    0.519622
 C   -8.378989    0.439580    0.147304
 C   -6.967494    0.141646   -0.383518
 C   -1.280374    1.272255   -0.371034
 C   -8.138028   -1.939475    0.263113
 C   -5.604488   -1.852940    0.373884
 C   -8.675301   -0.749990    1.063573
 C    7.807294   -2.642821   -0.358579
 C    1.119334   -0.926523   -0.419029
 C    1.263791    0.566777   -0.255832
 C    2.532537    1.135438   -0.130866
 C    1.647893    3.372469    0.131078
 N   -0.839006    3.463141   -0.028792
 C   -1.030203    4.884187    0.130738
 C   -2.070973    0.008025   -0.576478
 C   -2.393101   -0.699331    0.753699
 C   -4.137419   -1.087056   -1.527961
 C   -3.379151    0.231423   -1.349804
 O   -5.693745   -2.270505    1.521320
 C   -6.846247   -1.418458   -0.404667
 C    4.842495    0.378772    0.434800
 O    5.109764    1.267807    1.225111
 C    5.842911   -0.708899    0.130674
 C    5.486824   -1.999715   -0.265539
 C    6.464633   -2.960791   -0.507748
 C    8.167747   -1.354164    0.053360
 C    7.188277   -0.393793    0.307241
 C    9.557257   -1.022417    0.217333
 N   10.679524   -0.762683    0.343479
 H    3.617713   -0.421320   -0.973297
 H    3.733616    2.893599    0.177712
 H   -2.853272    2.834915   -0.287345
 H   -2.557295   -2.706116   -0.043346
 H   -3.473826   -2.456214    1.458353
 H   -9.097817    0.455341   -0.681732
 H   -8.438142    1.408279    0.653304
 H   -6.222209    0.562401    0.302208
 H   -6.782686    0.586841   -1.366553
 H   -8.859202   -2.216134   -0.515198
 H   -7.944590   -2.815745    0.883511
 H   -9.735595   -0.846354    1.316556
 H   -8.108957   -0.657114    1.997525
 H    8.577482   -3.382752   -0.548171
 H    0.181992   -1.288809    0.003202
 H    1.139544   -1.231381   -1.474339
 H    1.925349   -1.454932    0.099748
 H    1.792708    4.436550    0.289227
 H   -0.629639    5.223853    1.091789
 H   -0.535568    5.438829   -0.674276
 H   -2.098808    5.104730    0.101865
 H   -1.469672   -0.681175   -1.185928
 H   -1.473987   -0.913871    1.310972
 H   -2.989461   -0.023224    1.379436
 H   -5.073869   -0.917163   -2.057200
 H   -3.537546   -1.772828   -2.144476
 H   -3.168005    0.674603   -2.329636
 H   -4.027715    0.928555   -0.804028
 H   -6.784189   -1.788093   -1.432437
 H    4.440552   -2.279726   -0.355141
 H    6.176877   -3.963652   -0.805602
 H    7.456712    0.600134    0.648001
