67 
6cn6_ligand_ani.xyz
 N    3.536141    0.317294   -0.123810
 C    2.699219    2.569558    0.378627
 N   -4.217115   -1.612367   -0.573457
 C    0.119592    1.697539   -0.340570
 C    0.377346    3.019249    0.113818
 C   -1.808504    2.852207   -0.256454
 C   -2.832943   -1.946868   -0.252564
 C   -8.513157   -0.117228    0.534347
 C   -6.977935   -0.126358    0.531056
 C   -1.317742    1.609391   -0.547367
 C   -7.633071   -2.410868    0.807958
 C   -5.179396   -1.912488    0.364110
 C   -8.931772   -1.574503    0.855104
 C    7.479936   -2.878637   -0.297172
 C    1.079445   -0.540086   -1.113618
 C    1.207990    0.824469   -0.492844
 C    2.477656    1.257759   -0.072571
 C    1.652231    3.462452    0.467758
 N   -0.810754    3.707603    0.139695
 C   -0.978214    5.090380    0.518956
 C   -2.119138    0.383607   -0.914233
 C   -2.058640   -0.704857    0.173155
 C   -4.338329   -0.592966   -1.609117
 C   -3.592560    0.684891   -1.222922
 O   -4.887176   -2.446396    1.424856
 C   -6.620980   -1.541912    0.053818
 C    4.883744    0.539469   -0.013200
 O    5.388425    1.633394    0.187324
 C    5.741000   -0.688766   -0.135626
 C    5.366037   -1.843035   -0.827250
 C    6.231569   -2.929821   -0.907133
 C    7.861570   -1.717998    0.384075
 C    6.998328   -0.625052    0.455842
 C    9.156017   -1.638958    1.010127
 N   10.196804   -1.571942    1.514002
 H    3.244017   -0.645785   -0.148412
 H    3.703810    2.863808    0.647683
 H   -2.829622    3.218528   -0.304394
 H   -2.371261   -2.391992   -1.145733
 H   -2.851726   -2.696425    0.539071
 H   -8.888302    0.170980   -0.454254
 H   -8.920046    0.604678    1.249583
 H   -6.595554   -0.009862    1.553589
 H   -6.541403    0.672819   -0.079287
 H   -7.770790   -3.391589    0.342147
 H   -7.246285   -2.579536    1.816939
 H   -9.664804   -1.931939    0.123264
 H   -9.404988   -1.653128    1.839547
 H    8.159976   -3.723454   -0.349777
 H    0.139183   -0.645782   -1.655089
 H    1.876235   -0.731341   -1.843626
 H    1.123012   -1.342138   -0.362867
 H    1.823738    4.480667    0.810428
 H   -0.667034    5.253327    1.557055
 H   -0.392505    5.747556   -0.133635
 H   -2.033668    5.356640    0.425076
 H   -1.687283   -0.034927   -1.836811
 H   -1.018222   -0.957538    0.404385
 H   -2.497259   -0.306054    1.095848
 H   -5.389199   -0.386814   -1.817870
 H   -3.902007   -0.997857   -2.533433
 H   -3.674962    1.418270   -2.033246
 H   -4.065359    1.123800   -0.333409
 H   -6.812019   -1.628422   -1.022887
 H    4.410473   -1.900866   -1.343502
 H    5.924130   -3.823788   -1.442434
 H    7.298400    0.284607    0.966928
