78 
6cq1_ligand_xtb.xyz
 N  -11.009187    3.529713   -2.028777
 C  -10.152974    4.495726   -1.414072
 C  -10.915175    5.360392   -0.394441
 O  -12.124201    5.330079   -0.291118
 C  -10.231884    8.487478    1.009323
 C  -10.059925    6.656637    2.736728
 C  -14.874278    6.533538   -8.047907
 C  -16.341405    1.981619   -2.044729
 C  -16.955416    1.023899   -1.231391
 C  -12.665742   -0.000305   -0.765209
 C  -15.391713    2.842595   -1.543094
 C  -16.636518    0.904591    0.101711
 C  -12.938004    0.540621   -2.000571
 C  -14.164572    2.917153    1.815990
 C  -11.229680    1.864711   -0.179963
 C  -11.581461    3.638237   -3.272919
 C  -14.902344   -0.399846    2.876853
 C  -15.316254    1.065299    3.144156
 C  -14.309554    5.688055   -5.873982
 C  -13.808079    4.399744   -7.792156
 C  -14.271119    4.426431   -5.021022
 C  -13.772238    3.139194   -6.935806
 C  -13.184940    2.294707   -4.759114
 C  -12.519868   -0.251538    2.366181
 C  -11.842621    0.667416    0.158594
 C  -15.083474    1.912707    1.933714
 C  -12.406790    2.582464   -3.516211
 C  -15.054975    2.720573   -0.201170
 C  -15.669725    1.756896    0.638471
 C  -12.361167    1.758987   -2.349953
 C  -11.486531    2.396356   -1.434827
 C  -10.613525    7.055239    1.371731
 N  -13.786401   -0.463908    1.961982
 N  -11.599273    0.132343    1.434305
 N  -10.120368    6.141199    0.353492
 N  -14.153465    3.413958    0.545090
 N  -14.734251    5.357386   -7.220201
 N  -13.338022    3.473216   -5.592896
 S  -12.002235   -0.481010    3.920849
 H   -9.321979    3.989457   -0.909321
 H   -9.744030    5.152258   -2.188172
 H  -10.639454    9.177255    1.742441
 H   -9.149380    8.600842    0.993139
 H  -10.626611    8.749803    0.030836
 H  -10.466026    7.306280    3.506436
 H  -10.330941    5.630760    2.973327
 H   -8.975007    6.743822    2.748573
 H  -15.607466    7.200820   -7.596799
 H  -13.927412    7.084370   -8.171957
 H  -15.233326    6.235518   -9.032117
 H  -16.627205    2.046770   -3.084853
 H  -17.699317    0.369994   -1.663584
 H  -13.052580   -0.976261   -0.514640
 H  -14.917685    3.587849   -2.162398
 H  -17.128694    0.169502    0.721854
 H  -13.580344    0.019335   -2.692880
 H  -13.515819    3.321538    2.570226
 H  -10.585583    2.363981    0.529778
 H  -11.348188    4.467655   -3.911286
 H  -14.612928   -0.888391    3.808290
 H  -15.723479   -0.955756    2.420425
 H  -14.714852    1.462450    3.963367
 H  -16.365806    1.089373    3.443817
 H  -13.307336    6.155495   -5.872619
 H  -15.023392    6.396071   -5.445958
 H  -12.786501    4.817185   -7.857688
 H  -14.145138    4.146324   -8.800322
 H  -15.289696    4.002606   -4.965045
 H  -13.940862    4.678416   -4.011682
 H  -14.777227    2.680632   -6.934170
 H  -13.064300    2.427686   -7.368697
 H  -14.161687    1.858153   -4.479352
 H  -12.645598    1.539363   -5.343377
 H  -11.702524    6.947853    1.365648
 H  -14.012553   -0.102059    1.041599
 H  -10.704483    0.360465    1.847869
 H   -9.122146    6.123644    0.210739
 H  -13.548090    4.146384    0.202912
