78 
6cq1_ligand_ani.xyz
 N   -9.912050    3.404597   -2.029645
 C   -8.767984    3.931087   -1.324400
 C   -9.115898    4.530374    0.047302
 O   -8.351908    4.442400    0.995132
 C  -11.429858    4.241822    2.105448
 C  -11.988148    6.535044    1.194368
 C  -13.012830    8.246497   -7.292892
 C  -18.677203   -0.835314   -0.685820
 C  -18.625068   -0.715042    0.718214
 C  -12.797104    0.674171   -0.960879
 C  -17.957910    0.012551   -1.506973
 C  -17.848977    0.256444    1.320369
 C  -12.810392    1.314538   -2.183722
 C  -15.794924    2.700278   -0.417427
 C  -10.744982    1.793392   -0.299254
 C  -10.375788    3.796347   -3.266918
 C  -14.864867    1.602657    2.816853
 C  -15.753212    2.657277    2.153511
 C  -12.736523    6.927634   -5.312900
 C  -12.438590    5.927680   -7.459306
 C  -12.952109    5.552129   -4.701488
 C  -12.645923    4.550549   -6.848015
 C  -12.302366    3.230671   -4.857570
 C  -12.711758    0.510310    2.264671
 C  -11.779610    0.918239   -0.010179
 C  -16.214037    2.227678    0.793918
 C  -11.514691    3.112894   -3.588509
 C  -17.175337    0.995567   -0.890238
 C  -17.107020    1.131720    0.511359
 C  -11.797815    2.239500   -2.483147
 C  -10.773386    2.447023   -1.530747
 C  -10.900418    5.491305    1.399442
 N  -13.730749    1.327467    1.950415
 N  -11.809662    0.276920    1.258967
 N  -10.318649    5.155446    0.108691
 N  -16.371322    1.969586   -1.435462
 N  -13.169154    6.933356   -6.702831
 N  -12.206510    4.551070   -5.458903
 S  -12.507198   -0.195043    3.773004
 H   -8.009638    3.161622   -1.157938
 H   -8.333251    4.710571   -1.957562
 H  -11.847361    4.500300    3.085549
 H  -12.216319    3.752074    1.515487
 H  -10.617714    3.522671    2.257905
 H  -12.412448    6.856604    2.151937
 H  -11.590531    7.415317    0.680493
 H  -12.805881    6.117778    0.592236
 H  -13.601717    8.979723   -6.731582
 H  -11.958342    8.587961   -7.304840
 H  -13.379387    8.237292   -8.324888
 H  -19.296344   -1.610595   -1.129963
 H  -19.203650   -1.398489    1.333517
 H  -13.571884   -0.045959   -0.709107
 H  -17.997095   -0.078979   -2.590071
 H  -17.810547    0.347385    2.404303
 H  -13.601930    1.110561   -2.901111
 H  -15.121758    3.519386   -0.642166
 H   -9.977201    1.998970    0.444693
 H   -9.847116    4.559477   -3.829535
 H  -14.495457    1.949171    3.786466
 H  -15.426612    0.678844    3.001810
 H  -15.184960    3.594368    2.073269
 H  -16.608944    2.867579    2.806211
 H  -11.667419    7.206576   -5.222351
 H  -13.319446    7.676810   -4.762670
 H  -11.353916    6.153183   -7.488100
 H  -12.803167    5.935014   -8.493964
 H  -14.036569    5.326815   -4.685537
 H  -12.600896    5.539759   -3.663803
 H  -13.712297    4.263749   -6.942285
 H  -12.055372    3.812416   -7.404413
 H  -13.358216    2.946131   -4.663227
 H  -11.930615    2.499471   -5.591348
 H  -10.084708    5.909157    1.997790
 H  -13.783733    1.657060    0.992595
 H  -10.989734   -0.226101    1.567949
 H  -10.950787    5.031423   -0.670703
 H  -16.180113    2.084082   -2.417490
