43 
6cq5_ligand_xtb.xyz
 C    5.281411    0.891097    0.002424
 C    2.998304    1.133485   -0.006720
 C    0.710734    1.560530   -0.012964
 C   -0.303545    2.515961   -0.003752
 C   -1.623318    2.118074   -0.014101
 C   -1.974280    0.767301   -0.034565
 C   -3.423421    0.350928   -0.034936
 C   -3.735680   -0.628219   -1.178299
 C   -5.216000   -0.573344   -1.518750
 C   -5.060886   -1.093371    1.267926
 C   -3.791869   -0.258731    1.331695
 C   -0.962715   -0.173912   -0.042128
 C    0.380202    0.201690   -0.032139
 C    1.436053   -0.824219   -0.037986
 C    2.782723   -0.258332   -0.021054
 C    3.911382   -1.078276   -0.015038
 C    5.185460   -0.542754    0.002945
 C    6.414574   -1.364996    0.019934
 N    6.458101    1.511520    0.006414
 N    4.200007    1.673246    0.001605
 O    1.992608    2.016182   -0.002810
 O   -7.354938   -1.224178   -0.063723
 O   -6.385870    1.005216    0.286170
 O    1.211574   -2.023543   -0.051846
 O    6.272429   -2.692804    0.089080
 O    7.529825   -0.893868   -0.020847
 S   -6.184755   -0.393804    0.022161
 H   -0.030512    3.558863    0.011028
 H   -2.401671    2.866303   -0.006018
 H   -4.042173    1.239695   -0.184202
 H   -3.447976   -1.640768   -0.892728
 H   -3.148343   -0.359733   -2.059871
 H   -5.574286   -1.471449   -2.012337
 H   -5.461514    0.299950   -2.117658
 H   -5.597111   -1.110442    2.212241
 H   -4.889444   -2.114148    0.939130
 H   -3.927970    0.557237    2.042149
 H   -2.967508   -0.879446    1.691912
 H   -1.172814   -1.232744   -0.058206
 H    3.711134   -2.142863   -0.032057
 H    7.300964    0.947824   -0.003874
 H    6.468014    2.516497    0.005944
 H    5.350751   -2.980783    0.130689
