23 
6csq_ligand_xtb.xyz
 C    0.673880   -1.230182    0.249178
 C   -1.407974    0.285148    0.318136
 C    0.092642    0.164262    0.475072
 C    0.757990    1.165626   -0.480737
 C    2.266394    1.186712   -0.254736
 C    2.858293   -0.207866   -0.436493
 C    2.180897   -1.203792    0.500373
 N   -2.023583   -0.648206   -0.432530
 O   -2.058000    1.217138    0.765918
 O   -3.416933   -0.561149   -0.543792
 H    0.503675   -1.544756   -0.783481
 H    0.200671   -1.952660    0.918568
 H    0.312727    0.482810    1.500275
 H    0.337165    2.158224   -0.313519
 H    0.542942    0.875139   -1.512032
 H    2.475314    1.540141    0.757270
 H    2.731848    1.882686   -0.954971
 H    3.931524   -0.184289   -0.239040
 H    2.715997   -0.530038   -1.470710
 H    2.597086   -2.201474    0.346727
 H    2.372296   -0.917519    1.536744
 H   -1.677343   -1.556010   -0.688217
 H   -3.612106    0.277821   -0.071666
