109 
6cvx_ligand_xtb.xyz
 C    1.285799    1.077922   -2.286192
 C    6.593399   -1.264011    0.286167
 C    7.842427   -0.817876   -0.491971
 C    2.150462    2.122400    2.434411
 C    3.018381    3.383943    2.452362
 C    2.179978    1.638382   -0.088669
 C    0.223393   -0.961574   -1.769903
 C    1.013773   -0.292626   -2.892237
 C    0.961117   -0.507661   -0.502886
 C   -2.785140    6.515320   -0.580658
 C   -1.480746    6.418522   -0.770343
 C   -0.799472    5.500720   -1.707522
 C   -1.542086    4.752464   -2.784607
 C   -0.990678    4.006458   -1.607068
 C    0.058652    1.987485   -2.458127
 C    2.573359    1.151871    1.305653
 C    4.538472   -0.218554    0.824007
 C    7.111189   -2.031683    1.513314
 C    0.688086    2.520146    2.219145
 C    2.294127    1.381999    3.766468
 C   -0.710162   -2.994658   -1.149822
 C   -1.009604   -4.372953   -1.425244
 C   -0.293391   -5.093410   -2.532598
 C   -2.579265   -4.310144    0.234912
 C   -3.605832   -4.925365    0.966588
 C   -4.270507   -4.235368    1.947101
 C   -3.925768   -2.902849    2.246464
 C   -2.904619   -2.283323    1.554971
 C   -2.236253   -2.967309    0.535851
 C   -5.590451   -2.725925    3.949144
 C   -1.902898    3.379642   -0.568258
 C   -4.225283    1.281718    0.986359
 C   -5.432938    1.642993    0.185496
 C   -5.339476    0.296917    0.832900
 C    9.034770   -1.443275    0.235617
 C    8.553434   -1.561090    1.678740
 C   -0.881247   -4.639627   -3.873682
 C   -3.849875    1.914938    2.289361
 C   -0.407813   -6.605342   -2.373573
 N    0.151637    3.156019   -1.801127
 N    1.504205    0.790255   -0.868393
 N    4.008606    0.936930    1.289423
 N   -1.925150   -4.989660   -0.737472
 N   -1.277700   -2.337096   -0.180139
 N   -2.587054    2.301181   -1.045316
 O   -0.913296    1.661589   -3.118806
 O    2.540566    2.738766   -0.512908
 O    3.913079   -1.227811    0.596841
 O    5.872225   -0.090724    0.678191
 O    0.181797   -2.366678   -1.934502
 O   -4.550953   -2.148013    3.197021
 O   -1.971692    3.743040    0.580708
 O   -3.143410   -0.105139   -1.011421
 O   -1.620872    0.754095    0.719644
 S   -2.813647    0.907834   -0.057863
 H    2.169040    1.583540   -2.692428
 H    5.915009   -1.883168   -0.309253
 H    7.795710   -1.111144   -1.538995
 H    7.894786    0.269840   -0.441208
 H    4.019127    3.170558    2.822335
 H    2.568777    4.123062    3.111235
 H    3.086186    3.809980    1.455092
 H   -0.807497   -0.587376   -1.740688
 H    0.441723   -0.217983   -3.814069
 H    1.938424   -0.841685   -3.067642
 H    1.767331   -1.210614   -0.265078
 H    0.261244   -0.426765    0.329894
 H   -3.498986    5.906594   -1.108807
 H   -3.194897    7.209589    0.131228
 H   -0.811119    7.050838   -0.203424
 H    0.212931    5.801600   -1.952097
 H   -1.051402    4.608281   -3.734830
 H   -2.611277    4.870958   -2.854837
 H    2.118466    0.179194    1.495845
 H    6.492067   -1.833065    2.386505
 H    7.084694   -3.101745    1.307251
 H    0.060490    1.659035    2.004207
 H    0.301748    3.010941    3.109016
 H    0.592816    3.217662    1.391200
 H    2.100615    2.059424    4.594690
 H    3.300200    0.982370    3.873356
 H    1.586686    0.558321    3.822491
 H    0.759263   -4.792522   -2.499570
 H   -3.863446   -5.947132    0.734832
 H   -5.063390   -4.727793    2.488110
 H   -2.626461   -1.265251    1.769278
 H   -5.916465   -1.951471    4.642230
 H   -6.433520   -3.020148    3.315174
 H   -5.244432   -3.593539    4.519711
 H   -5.313389    1.692636   -0.886132
 H   -6.112142    2.376972    0.593714
 H   -5.940987    0.088305    1.704822
 H   -5.154125   -0.556650    0.199661
 H    9.239147   -2.437128   -0.165769
 H    9.936560   -0.841188    0.138568
 H    9.153003   -2.251934    2.269055
 H    8.572632   -0.581507    2.157743
 H   -0.782495   -3.563331   -3.987082
 H   -1.935167   -4.903482   -3.926083
 H   -0.358101   -5.126383   -4.693555
 H   -3.302005    1.203396    2.903888
 H   -4.739470    2.235198    2.827571
 H   -3.209271    2.775817    2.106604
 H    0.023459   -6.920999   -1.427400
 H    0.113163   -7.109189   -3.184299
 H   -1.453220   -6.898941   -2.384383
 H    1.012068    3.342715   -1.280477
 H    4.592225    1.758380    1.245506
 H   -2.393209    2.039867   -2.013895
