100 
6cvy_ligand_ani.xyz
 C   -1.443430   -0.720629   -2.212461
 C   -6.996894    0.716732    0.982330
 C   -8.374678    0.162660    1.316384
 C   -1.700991   -1.606608    2.583427
 C   -1.920436   -0.883434    3.917793
 C   -2.219764   -1.318548    0.062827
 C   -0.602835    1.431660   -1.732456
 C   -1.315828    0.673021   -2.835811
 C   -1.291869    0.961078   -0.453302
 C    1.341042   -6.974060   -0.376311
 C    1.824514   -5.854659   -0.904296
 C    1.056186   -4.974382   -1.814787
 C    1.773620   -4.120707   -2.822808
 C    1.107882   -3.471232   -1.642255
 C   -0.130348   -1.519333   -2.375361
 C   -2.531190   -0.863723    1.501303
 C   -4.753327    0.064607    1.331186
 C   -7.050304    0.940203   -0.525739
 C   -0.214846   -1.549529    2.204591
 C   -2.129120   -3.071930    2.736441
 C    0.249776    3.530524   -1.171228
 C    0.178235    4.972318   -1.184395
 C    2.022885    5.067907    0.143942
 C    2.984940    5.820991    0.859816
 C    3.995533    5.182983    1.530743
 C    4.089852    3.769775    1.504622
 C    3.157133    3.014491    0.823108
 C    2.105681    3.668212    0.146749
 C    5.334357    1.837378    2.024247
 C    1.985480   -2.924269   -0.524009
 C    4.973766   -2.014648    0.608755
 C    5.628800   -2.807593   -0.489140
 C    6.350049   -1.646052    0.123418
 C   -8.712329   -0.766267    0.131452
 C   -7.869909   -0.250477   -1.066393
 C    4.811661   -2.614166    1.987220
 N   -0.129475   -2.768623   -1.851791
 N   -1.680030   -0.413012   -0.786462
 N   -3.959836   -0.989837    1.717029
 N    1.022851    5.706554   -0.548459
 N    1.178891    2.913443   -0.506203
 N    2.690752   -1.801454   -0.904055
 O    0.860042   -1.043838   -2.924183
 O   -2.470856   -2.471066   -0.301122
 O   -4.362098    1.185745    1.069232
 O   -6.042995   -0.321446    1.298548
 O   -0.661613    2.858034   -1.880534
 O    5.132000    3.231040    2.185493
 O    2.066047   -3.441936    0.571920
 O    2.897731   -0.523314    1.312493
 O    4.210704    0.149604   -0.737914
 S    3.657779   -0.890636    0.123326
Cl   -1.094922    5.720804   -2.091369
 H   -2.281865   -1.314938   -2.593073
 H   -6.731517    1.619667    1.538561
 H   -8.383759   -0.341137    2.286583
 H   -9.085079    0.996824    1.369788
 H   -1.369907   -1.388655    4.719064
 H   -1.561995    0.152208    3.870585
 H   -2.982517   -0.868611    4.183384
 H    0.447253    1.131386   -1.709617
 H   -0.752480    0.656434   -3.771401
 H   -2.306358    1.106300   -3.010618
 H   -2.170447    1.568456   -0.201285
 H   -0.583583    0.984336    0.386284
 H    1.933952   -7.581065    0.302125
 H    0.336915   -7.330096   -0.601175
 H    2.825219   -5.513643   -0.642727
 H    0.080995   -5.362680   -2.108225
 H    2.862609   -4.159579   -2.810603
 H    1.309633   -3.954526   -3.788747
 H   -2.314431    0.201468    1.600304
 H   -6.050943    1.026952   -0.958329
 H   -7.573133    1.886742   -0.709891
 H    0.401194   -2.004591    2.987979
 H    0.133821   -0.517343    2.067842
 H   -0.013472   -2.099599    1.280938
 H   -3.162092   -3.152843    3.093373
 H   -1.487476   -3.563009    3.477675
 H   -2.041367   -3.614657    1.790618
 H    2.890941    6.902763    0.850901
 H    4.748160    5.733459    2.088525
 H    3.192579    1.930811    0.775036
 H    5.457224    1.571020    0.966196
 H    4.501212    1.255315    2.438190
 H    6.248663    1.600390    2.571197
 H    5.255629   -2.694456   -1.501761
 H    5.965315   -3.809633   -0.237064
 H    6.440918   -0.740004   -0.465733
 H    7.175326   -1.856838    0.795318
 H   -9.785850   -0.767786   -0.082127
 H   -8.433684   -1.796302    0.366732
 H   -8.493521    0.052144   -1.913533
 H   -7.207673   -1.041332   -1.428597
 H    4.727292   -1.819082    2.733083
 H    5.689015   -3.226231    2.224477
 H    3.916316   -3.238245    2.024264
 H   -0.943638   -3.052537   -1.307462
 H   -4.361003   -1.892480    1.497666
 H    2.453298   -1.364129   -1.794148
