73 
6cw8_ligand_dft.xyz
 C    2.653206   -3.976557   -0.080966
 C    0.575742   -4.752235    0.955852
 C   -2.234580   -2.184555    1.195232
 C   -1.652118   -1.201684    1.992027
 C   -0.357851   -1.383288    2.473072
 C    3.065996    1.120697   -0.015545
 C   -6.660416    1.276407    0.062301
 C   -5.190717    1.220636   -0.174036
 C   -4.393459    2.187277    0.441656
 C   -3.021244    2.183068    0.242446
 C   -2.426963    1.195858   -0.545481
 C   -0.933264    1.224089   -0.681551
 C    1.100114   -0.063853   -0.985793
 C    1.440395   -1.504124   -1.388202
 C    3.170183   -3.248636   -1.340818
 C   -0.225356   -3.530926    1.360398
 C   -1.522930   -3.340072    0.881937
 C    0.352225   -2.539270    2.157499
 C    4.684663   -3.305179   -1.438630
 C    1.803978    0.359076    0.331294
 C    3.917842    3.326756   -0.694746
 C    4.487527    4.269095    0.384038
 C    3.381668    5.190917    0.913415
 C    5.078986    3.448600    1.536256
 C    5.589374    5.109464   -0.274040
 C   -3.223882    0.227497   -1.158449
 C   -4.601220    0.240112   -0.975271
 N   -7.448028    0.685376   -0.890042
 N   -0.334047    0.035172   -0.895518
 N    2.728893   -1.858222   -1.231315
 N    1.391011   -4.473701   -0.219599
 N    2.872853    2.441139   -0.218097
 O   -7.175944    1.784546    1.051424
 O   -8.812671    0.895148   -0.729179
 O    3.307747   -4.035543    0.947455
 O    0.561278   -2.257494   -1.807479
 O    4.141542    0.543169   -0.179375
 O   -0.300591    2.275977   -0.571924
 H   -0.090591   -5.590336    0.729045
 H    1.255538   -5.060152    1.752401
 H   -3.244738   -2.048298    0.820050
 H   -2.206059   -0.298506    2.231040
 H    0.100840   -0.623870    3.099915
 H   -4.865775    2.933246    1.071933
 H   -2.388173    2.938609    0.695195
 H    1.435846    0.603148   -1.790653
 H    2.706607   -3.676566   -2.235231
 H   -1.981564   -4.104657    0.259031
 H    1.364859   -2.681072    2.526732
 H    5.033188   -2.717658   -2.292557
 H    5.013220   -4.340000   -1.564256
 H    5.136362   -2.918489   -0.521398
 H    1.124115    0.985665    0.908153
 H    2.062422   -0.512021    0.935948
 H    3.513727    3.920717   -1.523864
 H    4.716505    2.692142   -1.089551
 H    3.780961    5.885220    1.661300
 H    2.579376    4.616956    1.391100
 H    2.940302    5.786936    0.105104
 H    4.304765    2.859781    2.039360
 H    5.536023    4.109117    2.282002
 H    5.844071    2.752858    1.175593
 H    6.021999    5.811895    0.447050
 H    5.196599    5.693125   -1.115481
 H    6.399037    4.473630   -0.650906
 H   -2.779301   -0.534644   -1.791567
 H   -5.212598   -0.532161   -1.432834
 H   -7.194861    0.785933   -1.864580
 H   -0.841776   -0.840342   -0.874041
 H    3.385683   -1.189630   -0.820774
 H    0.883220   -4.109055   -1.020136
 H    1.912805    2.767521   -0.196609
 H   -8.835703    1.411151    0.104728
