40 
6cwh_ligand_xtb.xyz
 C    1.998795   -2.975302    1.641244
 C    1.528818   -2.365694    0.339422
 O    0.701371   -2.910470   -0.370592
 N    2.106253   -1.176863    0.083706
 C    1.972149   -0.253105   -1.032059
 C    0.571281   -0.180072   -1.692090
 O    0.231862   -1.303036   -2.419609
 C   -0.406159    0.201862   -0.568653
 O   -1.709613    0.389009   -1.081781
 C   -2.654444    0.736665   -0.089658
 C   -3.936819    1.137125   -0.811557
 C   -2.871470   -0.516485    0.792870
 O   -3.822184   -1.309760    0.319269
 O   -2.225489   -0.788870    1.771786
 O   -2.258453    1.847473    0.679551
 C   -0.939753    1.830460    1.195888
 C    0.045445    1.525817    0.067848
 O    1.359137    1.464620    0.566286
 C    2.295384    1.134103   -0.440292
 O    3.559139    1.080983    0.124648
 C    4.029525    2.324576    0.617138
 H    1.658007   -2.362761    2.473428
 H    1.578048   -3.971872    1.739307
 H    3.084008   -3.033854    1.667602
 H    2.773639   -0.831371    0.760605
 H    2.713332   -0.499925   -1.804602
 H    0.589911    0.641348   -2.420890
 H    0.245874   -2.077259   -1.810688
 H   -0.406075   -0.589027    0.194258
 H   -3.726269    2.017713   -1.409790
 H   -4.707173    1.367708   -0.083195
 H   -4.253936    0.324749   -1.455478
 H   -3.879746   -2.125611    0.846376
 H   -0.778547    2.827594    1.609088
 H   -0.828744    1.083847    1.989106
 H   -0.029088    2.311871   -0.704212
 H    2.252898    1.902934   -1.241011
 H    3.379117    2.699425    1.409649
 H    4.082704    3.061776   -0.190524
 H    5.025588    2.131480    1.007962
