40 
6cwi_ligand_ani.xyz
 C    3.317627   -2.485282    1.662916
 C    2.819065   -1.938784    0.347216
 O    2.971260   -2.559307   -0.706146
 N    2.207787   -0.731401    0.382678
 C    1.888308    0.007293   -0.829776
 C    0.532241   -0.439145   -1.426297
 O    0.476480   -1.819344   -1.646043
 C   -0.581061   -0.018100   -0.473466
 O   -1.845046   -0.205703   -1.086218
 C   -2.930007    0.178128   -0.265886
 C   -4.194575    0.126375   -1.100142
 C   -3.002417   -0.805929    0.931685
 O   -2.855683   -0.526324    2.094320
 O   -3.240750   -2.056869    0.513725
 O   -2.815123    1.493575    0.215698
 C   -1.570942    1.803643    0.848664
 C   -0.457054    1.462796   -0.123447
 O    0.804876    1.744338    0.448306
 C    1.852182    1.496045   -0.482185
 O    3.057014    1.869647    0.079229
 C    3.136824    3.250630    0.372386
 H    2.929901   -3.500314    1.784436
 H    3.030540   -1.880121    2.527255
 H    4.408707   -2.557609    1.620036
 H    2.172079   -0.225452    1.255780
 H    2.671754   -0.202392   -1.566429
 H    0.383832    0.104405   -2.376135
 H    1.383034   -2.179274   -1.586139
 H   -0.495160   -0.638014    0.431206
 H   -5.050380    0.401975   -0.477758
 H   -4.352938   -0.872395   -1.513345
 H   -4.098779    0.849880   -1.912790
 H   -3.244386   -2.616738    1.308206
 H   -1.460879    1.245497    1.784921
 H   -1.604105    2.874070    1.066112
 H   -0.599346    2.051872   -1.044061
 H    1.657696    2.083363   -1.400876
 H    4.151245    3.432781    0.734197
 H    2.413899    3.543427    1.141791
 H    2.963406    3.858730   -0.528116
