40 
6cwn_ligand_xtb.xyz
 C    2.038838   -2.970667    1.635197
 C    1.550618   -2.362368    0.339397
 O    0.723686   -2.913674   -0.366063
 N    2.114182   -1.167175    0.082759
 C    1.970635   -0.245321   -1.033363
 C    0.567666   -0.181235   -1.689672
 O    0.232218   -1.308467   -2.412584
 C   -0.409622    0.198674   -0.565498
 O   -1.713428    0.383579   -1.078951
 C   -2.660190    0.730269   -0.088110
 C   -3.940733    1.133000   -0.811960
 C   -2.878420   -0.525294    0.790257
 O   -3.839011   -1.309673    0.321603
 O   -2.224701   -0.807070    1.761278
 O   -2.265662    1.839196    0.684657
 C   -0.946972    1.822652    1.200937
 C    0.037975    1.523908    0.071132
 O    1.353032    1.468904    0.566509
 C    2.288235    1.143625   -0.442747
 O    3.553714    1.095915    0.118971
 C    4.019904    2.340752    0.612161
 H    1.723754   -2.350630    2.471780
 H    1.610019   -3.962368    1.746394
 H    3.123777   -3.041444    1.637797
 H    2.782282   -0.816757    0.756465
 H    2.710847   -0.488468   -1.808060
 H    0.580012    0.638000   -2.421088
 H    0.254506   -2.081219   -1.801886
 H   -0.407465   -0.592553    0.197108
 H   -3.731668    2.021876   -1.398346
 H   -4.716450    1.350854   -0.085397
 H   -4.250067    0.326736   -1.467224
 H   -3.896837   -2.128096    0.844655
 H   -0.787488    2.818534    1.617838
 H   -0.834426    1.073101    1.991214
 H   -0.042102    2.310355   -0.700033
 H    2.239996    1.912564   -1.243008
 H    3.367534    2.713626    1.403977
 H    4.072065    3.078143   -0.195361
 H    5.016060    2.150326    1.004111
