40 
6cyb_ligand_ani.xyz
 C    2.823646   -0.440276    0.762696
 C   -0.385438   -0.710038    2.214324
 C   -2.695210    0.281153    1.667566
 C   -3.944566   -0.534655   -0.223002
 C   -1.800633   -1.486251    0.310374
 C   -5.164392   -0.515433   -1.097424
 C   -0.410973    0.039109    3.543876
 C    4.195685   -0.973334    0.533016
 C    4.342552   -1.558348   -0.863266
 C    0.513856    2.874408   -0.415821
 O    3.987740    2.029194   -0.895085
 C    2.842820    1.874726   -0.525598
 C    2.296787    0.747652    0.212670
 N    1.858638    2.850701   -0.778198
 O   -0.238737    3.771876   -0.719885
 N    0.103493    1.778002    0.330121
 C    0.985403    0.774947    0.647666
 N    0.782862   -0.316177    1.414689
 N    1.921993   -1.059031    1.502318
 F    3.772805   -0.762241   -1.781701
 F    5.640446   -1.697873   -1.180298
 F    3.772032   -2.768871   -0.969784
 C   -1.665970   -0.621539    1.399020
 C   -2.929889   -1.450603   -0.494505
 F   -4.838655   -0.363553   -2.396608
 F   -6.010355    0.478750   -0.775486
 F   -5.852345   -1.671407   -1.009523
 C   -3.826028    0.334735    0.856558
 H   -0.193424   -1.769599    2.413180
 H   -2.633168    0.956742    2.518284
 H   -1.006484   -2.197572    0.093561
 H   -0.445044    1.123309    3.384857
 H    0.490061   -0.198040    4.116952
 H   -1.284835   -0.264200    4.129107
 H    4.438343   -1.740657    1.271934
 H    4.917550   -0.152808    0.600344
 H    2.168213    3.659073   -1.302123
 H   -0.888594    1.730106    0.532760
 H   -3.029180   -2.128979   -1.336165
 H   -4.615640    1.048856    1.066262
