38 
6cyc_ligand_xtb.xyz
 C    3.286444   -0.852060   -0.504416
 C    0.407225   -1.787714    1.307205
 C   -1.171178   -1.339286   -0.564979
 C   -3.306836   -0.309044   -0.254844
 C   -1.887703   -0.708671    1.635006
 C   -4.616384    0.167202   -0.818844
 C    0.618443   -1.710467    2.818091
 C    4.521870   -1.240780   -1.241045
 C    3.251190    1.793725   -0.535375
 O    4.235233    2.137259   -1.142133
 C    2.810518    0.455580   -0.230831
 N    2.359548    2.749637   -0.020552
 C    1.188371    2.580084    0.677213
 O    0.495667    3.494005    1.046179
 N    0.851030    1.261695    0.946217
 C    1.636782    0.248309    0.491578
 N    1.466970   -1.075728    0.622130
 N    2.470730   -1.744085    0.015759
 O    4.489652   -2.562079   -1.707643
 C   -0.925174   -1.268128    0.804314
 C   -3.077970   -0.233316    1.110641
 F   -5.149627    1.174148   -0.113200
 F   -4.512144    0.593548   -2.084726
 F   -5.539069   -0.815980   -0.826840
 C   -2.353504   -0.865917   -1.097947
 H    0.518409   -2.831526    0.989181
 H   -0.427499   -1.773754   -1.216264
 H   -1.728667   -0.645291    2.699535
 H    1.594657   -2.122901    3.061931
 H   -0.138111   -2.294985    3.333756
 H    0.585357   -0.683126    3.173652
 H    5.385832   -1.083653   -0.571779
 H    4.655493   -0.586162   -2.106860
 H    2.605305    3.716124   -0.206278
 H   -0.030010    1.094460    1.411814
 H    4.053272   -3.101100   -1.036989
 H   -3.823020    0.200262    1.759560
 H   -2.538390   -0.925017   -2.159081
