41 
6cyh_ligand_xtb.xyz
 N   -2.505690    2.047975   -0.656553
 C   -2.693908    1.732050    0.782611
 C   -1.542890    2.291866    1.622096
 N   -0.292969    1.566522    1.449950
 C    0.482373    1.687155    0.364590
 O    0.085245    2.215598   -0.672266
 C    1.897312    1.150956    0.533580
 O    1.943420    0.098840    1.480973
 C    2.540021    0.645825   -0.771093
 O    3.775157    1.286192   -0.914311
 C    2.713646   -0.888855   -0.540984
 O    4.046928   -1.263991   -0.488163
 C    1.987208   -1.139183    0.803138
 N    0.639933   -1.630466    0.625083
 C   -0.115216   -2.256478    1.589374
 N   -1.379192   -2.310744    1.319125
 C   -1.512631   -1.680121    0.110039
 C   -0.249198   -1.255917   -0.341410
 N   -0.037888   -0.612125   -1.491867
 C   -1.142938   -0.281674   -2.113217
 N   -2.401587   -0.498653   -1.722230
 C   -2.625148   -1.282045   -0.652677
 N   -3.894658   -1.536834   -0.286753
 H   -2.742536    1.218998   -1.259261
 H   -3.038571    2.865766   -0.952940
 H   -1.437609    2.242517   -0.800405
 H   -3.635497    2.151691    1.137557
 H   -2.734815    0.648484    0.905329
 H   -1.381153    3.343469    1.358971
 H   -1.814232    2.237310    2.675641
 H    0.117284    1.103249    2.250052
 H    2.507470    1.977816    0.923269
 H    1.876967    0.842687   -1.619998
 H    4.165138    1.052230   -1.765634
 H    2.247444   -1.471419   -1.337617
 H    4.561124   -0.558468   -0.064867
 H    2.535360   -1.844798    1.434888
 H    0.327094   -2.655715    2.480158
 H   -1.027300    0.273764   -3.033111
 H   -4.622047   -1.395091   -0.969106
 H   -4.037567   -2.246791    0.413651
