41 
6cyh_ligand_dft.xyz
 N   -2.432248    2.125671   -0.686196
 C   -2.632873    1.860158    0.784743
 C   -1.429949    2.325931    1.599784
 N   -0.226563    1.534970    1.398316
 C    0.594720    1.720805    0.344235
 O    0.267061    2.382462   -0.645761
 C    1.988173    1.105846    0.486030
 O    1.984321    0.072909    1.461011
 C    2.562306    0.525797   -0.818757
 O    3.815853    1.130789   -1.056941
 C    2.729615   -0.997480   -0.504073
 O    4.063547   -1.311128   -0.246461
 C    1.942284   -1.180830    0.803326
 N    0.555144   -1.612427    0.637383
 C   -0.213151   -2.104201    1.676279
 N   -1.493822   -2.133426    1.434197
 C   -1.591511   -1.620837    0.158167
 C   -0.341643   -1.289194   -0.354223
 N   -0.102901   -0.734493   -1.550104
 C   -1.217958   -0.456220   -2.204294
 N   -2.490362   -0.634491   -1.796820
 C   -2.702349   -1.265079   -0.626313
 N   -3.974542   -1.423810   -0.192159
 H   -2.745551    1.321213   -1.260204
 H   -2.927298    2.963711   -0.995868
 H   -1.399370    2.277133   -0.863509
 H   -3.535369    2.384747    1.102852
 H   -2.793315    0.789511    0.909968
 H   -1.210518    3.378352    1.384054
 H   -1.699177    2.258661    2.655690
 H    0.133770    0.966802    2.154407
 H    2.648166    1.904174    0.841571
 H    1.874581    0.680104   -1.649283
 H    3.980438    1.154963   -2.007400
 H    2.332151   -1.625365   -1.307274
 H    4.574674   -0.498219   -0.401154
 H    2.437402   -1.905575    1.448480
 H    0.252590   -2.431369    2.597459
 H   -1.103024    0.007071   -3.180851
 H   -4.706889   -1.371875   -0.886591
 H   -4.128443   -2.056422    0.581114
