41 
6cyh_ligand_ani.xyz
 N   -1.066358    2.631124   -1.476022
 C   -1.144133    2.973959   -0.016638
 C    0.209328    3.430446    0.551896
 N    1.147452    2.334708    0.760160
 C    1.705244    1.667484   -0.260709
 O    1.567664    1.996586   -1.442809
 C    2.495025    0.421813    0.141291
 O    2.038679   -0.019083    1.427726
 C    2.255406   -0.728453   -0.848304
 O    3.413490   -0.913238   -1.644996
 C    1.972765   -1.914632    0.078734
 O    3.181110   -2.462358    0.544544
 C    1.324100   -1.241009    1.282613
 N   -0.101744   -0.944725    1.135718
 C   -0.817696   -0.297798    2.126913
 N   -2.087835   -0.143337    1.871000
 C   -2.242824   -0.723841    0.629356
 C   -1.033989   -1.212292    0.140785
 N   -0.864952   -1.785216   -1.056244
 C   -2.003252   -1.873654   -1.742289
 N   -3.232059   -1.475308   -1.392312
 C   -3.372724   -0.890921   -0.193845
 N   -4.584222   -0.434199    0.196975
 H   -1.644130    1.802755   -1.686226
 H   -1.398077    3.424611   -2.052741
 H   -0.071593    2.423693   -1.726553
 H   -1.884112    3.762639    0.121971
 H   -1.486397    2.082217    0.510928
 H    0.671861    4.157861   -0.123911
 H    0.057301    3.916369    1.517817
 H    1.225407    1.913479    1.674296
 H    3.563099    0.652415    0.200967
 H    1.373208   -0.515319   -1.459858
 H    3.164762   -1.358792   -2.464406
 H    1.326445   -2.662940   -0.393750
 H    3.826913   -2.323614   -0.166001
 H    1.460945   -1.818482    2.196485
 H   -0.330244    0.010942    3.044022
 H   -1.933576   -2.336443   -2.722387
 H   -5.395023   -0.730284   -0.324230
 H   -4.689817   -0.164305    1.164096
