28 
6czi_ligand_ani.xyz
 F   -2.956091    2.538842   -0.013376
 C   -2.634054    1.238112   -0.005933
 C   -3.676737    0.313943   -0.003537
 O   -4.962349    0.727926   -0.008990
 C   -1.306311    0.859403   -0.001167
 C   -0.974213   -0.509189    0.005631
 C   -2.015008   -1.461412    0.008711
 C   -3.321295   -1.033048    0.004439
 F   -4.349961   -1.917357    0.007312
 C    0.371370   -1.027310    0.007706
 C    1.576228   -0.384403    0.007836
 C    2.843002   -1.170728   -0.003749
 O    3.048539   -2.368781   -0.012094
 N    3.814685   -0.166011   -0.003670
 C    5.239155   -0.427806   -0.017512
 C    3.185794    1.049093    0.009771
 N    1.876689    0.956314    0.015883
 C    3.949681    2.326064    0.013019
 H   -5.522727   -0.061449   -0.006714
 H   -0.539285    1.628615   -0.002901
 H   -1.808408   -2.526511    0.014409
 H    0.457505   -2.109908    0.007545
 H    5.355327   -1.509578   -0.050153
 H    5.706990    0.013908   -0.901310
 H    5.716934   -0.039403    0.885970
 H    4.561908    2.422901   -0.891322
 H    3.250542    3.161922    0.053249
 H    4.620871    2.384551    0.877693
