12 
6d2o_ligand_xtb.xyz
 C    3.350120   -0.934919    7.939243
 N    2.347567   -0.196027    7.380312
 C    4.456515   -0.147344    8.101477
 C    2.828831    1.000180    7.208793
 N    4.112220    1.092012    7.630012
 C    3.163704   -2.370143    8.281310
 H    5.427800   -0.357377    8.499564
 H    2.288563    1.824055    6.786905
 H    4.706152    1.904258    7.606632
 H    4.073834   -2.776288    8.714850
 H    2.346015   -2.481228    8.990989
 H    2.906679   -2.936180    7.387914
