48 
6d4r_ligand_dft.xyz
 C   -0.195719   -2.005723    0.863622
 N    0.941254   -2.277218    0.154112
 C    2.173836   -2.446101    0.925900
 C    1.101268   -2.255664   -1.289881
 C    1.813269    1.237005    0.540309
 C    0.755499    1.870209   -0.188970
 C   -0.352987    2.790157   -2.122534
 C   -1.513053    2.777412   -0.171490
 C   -0.531065    1.911307    1.918477
 O   -5.478464    0.629270   -0.169953
 N   -4.400493    0.487743    0.381014
 O   -3.971020    1.214889    1.265916
 C   -3.559464   -0.639815   -0.043555
 C   -4.049432   -1.520828   -1.000013
 C   -3.257586   -2.602450   -1.362596
 C   -1.994212   -2.770498   -0.798807
 C   -1.506746   -1.855886    0.136655
 C   -2.316335   -0.797950    0.543142
 O   -0.178409   -1.882907    2.080688
 C    3.384212   -2.020191    0.089841
 N    3.077729   -0.876688   -0.757262
 C    2.018041   -1.101307   -1.738014
 S    3.347822    0.672553   -0.213036
 O    3.600615    1.491721   -1.385078
 O    4.333155    0.548778    0.848446
 C    0.764311    2.225193   -1.565533
 N   -1.501063    3.061029   -1.449800
 C   -0.427122    2.188532    0.533455
 C    0.508587    1.322738    2.585847
 C    1.686635    0.988188    1.886739
 H    2.280688   -3.488551    1.253225
 H    2.085338   -1.830902    1.821999
 H    0.135684   -2.134612   -1.776333
 H    1.512358   -3.219208   -1.616059
 H   -0.355572    3.061365   -3.174993
 H   -2.427681    3.001055    0.375606
 H   -1.455738    2.160637    2.431940
 H   -5.030522   -1.360550   -1.429142
 H   -3.628449   -3.322238   -2.084484
 H   -1.397342   -3.635069   -1.074813
 H   -1.978934   -0.122167    1.317271
 H    3.717483   -2.827922   -0.572033
 H    4.223975   -1.766362    0.735986
 H    1.418965   -0.195961   -1.849772
 H    2.451116   -1.331613   -2.718673
 H    1.652067    2.076086   -2.165637
 H    0.435132    1.096740    3.643380
 H    2.515682    0.534385    2.418971
