48 
6d4s_ligand_xtb.xyz
 C   -1.387199   -1.734687    0.787317
 N   -0.468664   -2.349634   -0.032335
 C    0.595557   -3.090879    0.621157
 C   -0.065462   -1.903794   -1.349282
 C    3.894975    0.221660    0.276364
 C    3.493699    1.504919   -0.151410
 C    2.747992    3.124461   -1.750955
 C    3.053921    3.828346    0.384858
 C    3.860573    2.285933    2.147645
Cl   -6.705518    1.418010   -0.889289
 C   -5.541344    0.799254    0.224620
 C   -5.724769    0.987579    1.585926
 C   -4.784097    0.487435    2.468027
 C   -3.671423   -0.194467    2.014163
 C   -3.475374   -0.395051    0.649627
 C   -4.428617    0.116299   -0.243244
Cl   -4.216271   -0.108951   -1.951677
 N   -2.383656   -1.059899    0.116238
 O   -1.343448   -1.846398    1.994990
 C    1.853497   -2.228210    0.740041
 N    2.222551   -1.762241   -0.575701
 C    1.182526   -1.016056   -1.236245
 S    3.797134   -1.240169   -0.767556
 O    4.633190   -2.247666   -0.190817
 O    3.957187   -0.920292   -2.154492
 C    3.126524    1.837199   -1.472468
 N    2.701354    4.105060   -0.836815
 C    3.471932    2.548087    0.818402
 C    4.266961    1.032989    2.515280
 C    4.273618   -0.004722    1.570160
 H    0.812891   -3.976260    0.019070
 H    0.247432   -3.386195    1.610859
 H   -0.852617   -1.352208   -1.860792
 H    0.183496   -2.790055   -1.940785
 H    2.461745    3.421409   -2.750544
 H    3.017893    4.647667    1.092342
 H    3.835133    3.094502    2.863403
 H   -6.594603    1.518229    1.936657
 H   -4.921736    0.630048    3.528217
 H   -2.944922   -0.591318    2.702682
 H   -2.434083   -1.152605   -0.890029
 H    2.689480   -2.813587    1.120949
 H    1.651603   -1.385892    1.420680
 H    0.926695   -0.100121   -0.677105
 H    1.553194   -0.747774   -2.225229
 H    3.178478    1.086953   -2.242880
 H    4.576513    0.828000    3.528372
 H    4.592234   -0.998014    1.844399
