48 
6d4s_ligand_ani.xyz
 C   -1.869580   -1.942519    0.289482
 N   -0.540075   -1.867760   -0.095508
 C    0.357926   -2.870061    0.462963
 C   -0.091254   -1.355245   -1.383463
 C    4.158678   -0.067324    0.334105
 C    3.904226    1.302962    0.004610
 C    3.269538    3.136815   -1.429629
 C    3.734438    3.623451    0.734206
 C    4.468581    1.874958    2.330923
Cl   -6.592917    2.401928   -0.023862
 C   -5.911404    0.819104    0.147333
 C   -6.751357   -0.231337    0.497334
 C   -6.222394   -1.506131    0.637545
 C   -4.871890   -1.750595    0.437380
 C   -4.018399   -0.702629    0.087793
 C   -4.550684    0.592247   -0.063035
Cl   -3.507214    1.901804   -0.513703
 N   -2.654611   -0.895432   -0.172705
 O   -2.281168   -2.844956    1.000306
 C    1.744660   -2.269192    0.632927
 N    2.198168   -1.713946   -0.647311
 C    1.284373   -0.723863   -1.226308
 S    3.835467   -1.413426   -0.791786
 O    4.517136   -2.583136   -0.266830
 O    4.061962   -0.975285   -2.158232
 C    3.524744    1.797224   -1.269077
 N    3.361629    4.058095   -0.442147
 C    4.036369    2.264128    1.035603
 C    4.756540    0.564215    2.590960
 C    4.603492   -0.414007    1.590910
 H    0.406231   -3.753122   -0.192100
 H   -0.042971   -3.196492    1.423428
 H   -0.798432   -0.626132   -1.783329
 H   -0.026207   -2.171035   -2.119745
 H    2.973963    3.522676   -2.401520
 H    3.820391    4.362696    1.531935
 H    4.571177    2.639287    3.097181
 H   -7.807382   -0.039062    0.654446
 H   -6.872265   -2.331334    0.913125
 H   -4.464650   -2.744478    0.555903
 H   -2.165292   -0.053990   -0.443187
 H    2.452627   -3.042038    0.942141
 H    1.723749   -1.486485    1.406011
 H    1.229233    0.173230   -0.591285
 H    1.662344   -0.432690   -2.208019
 H    3.455959    1.125208   -2.112865
 H    5.103249    0.264424    3.576066
 H    4.834176   -1.452172    1.805371
