57 
6d4u_ligand_ani.xyz
 C    0.182311   -1.564607   -1.318113
 C    4.245095    1.161162   -0.235208
 C    4.076706    1.218317   -1.641757
 C    3.976927    2.438171   -2.264690
 C    4.224511    3.597069   -0.332923
 C    4.587148    2.448294    1.834503
 C    4.569468    0.039925    1.907564
 C   -7.778639    2.985128    0.815762
 O   -7.558121    1.609892    0.588754
 C   -6.305617    1.225253    0.227252
 C   -6.143213   -0.146193   -0.005917
 C   -4.897434   -0.632032   -0.386051
 C   -3.794758    0.229036   -0.542538
 C   -2.453312   -0.326403   -0.936070
 C   -1.720926   -0.984676    0.239362
 O   -2.196377   -0.994785    1.361869
 N   -0.498348   -1.545284   -0.032357
 C    0.201262   -2.268342    1.021439
 C    1.620474   -1.736843    1.174351
 N    2.298001   -1.763964   -0.128298
 C    1.595528   -1.011088   -1.172271
 S    3.966477   -1.652895   -0.101847
 O    4.426468   -2.618767    0.879615
 O    4.414720   -1.726967   -1.481953
 C    4.311028   -0.030472    0.556122
 N    4.040346    3.630739   -1.627737
 C    4.351296    2.403570    0.434782
 C    4.707171    1.286787    2.545298
 C   -3.989597    1.575664   -0.292682
 C   -5.227926    2.095881    0.088867
 O   -4.651920   -1.940270   -0.649537
 C   -5.696403   -2.860030   -0.431289
 H   -0.368081   -0.977563   -2.055180
 H    0.244881   -2.597777   -1.687900
 H    4.044161    0.306350   -2.221426
 H    3.839013    2.491111   -3.341179
 H    4.286723    4.555556    0.184517
 H    4.677007    3.418183    2.317266
 H    4.663015   -0.877490    2.479017
 H   -7.157058    3.361150    1.639060
 H   -7.576018    3.578402   -0.085711
 H   -8.831709    3.081546    1.083757
 H   -7.005422   -0.793188    0.119255
 H   -1.823533    0.482822   -1.328789
 H   -2.576409   -1.075648   -1.728612
 H    0.238290   -3.338491    0.770078
 H   -0.363576   -2.148373    1.947027
 H    2.182349   -2.367230    1.868494
 H    1.601222   -0.712151    1.573370
 H    1.565667    0.060234   -0.920387
 H    2.134192   -1.132145   -2.113798
 H    4.904460    1.315843    3.613432
 H   -3.147489    2.256647   -0.398731
 H   -5.333438    3.159777    0.267141
 H   -6.040703   -2.833567    0.610733
 H   -6.545976   -2.667853   -1.098858
 H   -5.279954   -3.844527   -0.649019
