57 
6d4u_ligand_dft.xyz
 C    0.350979   -2.138257   -1.439342
 C    3.696740    1.397143   -0.213859
 C    3.655013    1.407289   -1.633554
 C    3.404993    2.583640   -2.290397
 C    3.253392    3.790911   -0.373601
 C    3.577371    2.754504    1.843660
 C    4.001725    0.393199    1.988693
 C   -7.087469    3.188209    0.757990
 O   -6.969737    1.793087    0.600242
 C   -5.768678    1.299956    0.201212
 C   -5.717625   -0.094404    0.074775
 C   -4.539930   -0.706116   -0.326322
 C   -3.390219    0.055419   -0.609218
 C   -2.127475   -0.638820   -1.030502
 C   -1.456869   -1.383340    0.128572
 O   -1.839351   -1.270648    1.279324
 N   -0.402805   -2.210808   -0.200669
 C    0.369667   -2.802509    0.879641
 C    1.644758   -1.999189    1.121758
 N    2.393640   -1.895655   -0.138417
 C    1.624877   -1.316109   -1.242791
 S    3.991666   -1.425296   -0.000586
 O    4.568235   -2.241650    1.052557
 O    4.548115   -1.427020   -1.342979
 C    3.928168    0.258993    0.621615
 N    3.191930    3.778918   -1.680825
 C    3.507918    2.649092    0.433384
 C    3.833682    1.649444    2.609122
 C   -3.473801    1.429304   -0.478128
 C   -4.647442    2.073432   -0.077411
 O   -4.398222   -2.045410   -0.490530
 C   -5.472241   -2.879215   -0.119714
 H   -0.248298   -1.701004   -2.237276
 H    0.623224   -3.155793   -1.743246
 H    3.846658    0.501815   -2.193239
 H    3.373305    2.603774   -3.376430
 H    3.096665    4.751707    0.117450
 H    3.429820    3.727666    2.304230
 H    4.199221   -0.486581    2.591458
 H   -6.393111    3.567292    1.518884
 H   -6.909735    3.717072   -0.187423
 H   -8.112512    3.369399    1.083953
 H   -6.615697   -0.655505    0.301349
 H   -1.420286    0.098888   -1.430678
 H   -2.338711   -1.351549   -1.835881
 H    0.628091   -3.831934    0.606953
 H   -0.247035   -2.806081    1.777578
 H    2.276016   -2.503764    1.854741
 H    1.375558   -1.000878    1.502213
 H    1.351927   -0.268925   -1.031550
 H    2.236396   -1.349760   -2.145661
 H    3.901074    1.724133    3.689129
 H   -2.593430    2.031564   -0.689275
 H   -4.662466    3.152635    0.011890
 H   -5.732654   -2.743989    0.937027
 H   -6.358731   -2.693112   -0.739573
 H   -5.128822   -3.901837   -0.280290
