55 
6d4v_ligand_dft.xyz
 C    0.443041   -1.977551   -1.370198
 C    1.004369    1.798992   -0.393930
 C    0.863022    1.530185   -1.780261
 C   -0.202749    2.055323   -2.464200
 C   -1.010189    3.149285   -0.646013
 C    0.099894    3.008796    1.555081
 C    2.060989    1.638583    1.796016
 O   -1.537230   -3.510682    1.243620
 C   -1.251989   -2.920175    0.210624
 C   -2.349530   -2.342145   -0.665659
 C   -3.087985   -1.218865    0.077943
 C   -2.177132   -0.051466    0.474093
 C   -2.919708    0.899206    1.431202
 C   -4.422506    1.004669    1.096658
 C   -4.661648    0.750870   -0.392377
 C   -4.270641   -0.692356   -0.764683
 N    0.051436   -2.715570   -0.168615
 C    1.113278   -3.132025    0.734589
 C    2.022748   -1.955119    1.070309
 N    2.502347   -1.346679   -0.178386
 C    1.962104   -1.860665   -1.429474
 S    3.267912    0.111395   -0.081891
 O    3.685922    0.465343   -1.429179
 O    4.223741    0.006952    1.006588
 C    2.024163    1.287999    0.467603
 N   -1.153195    2.855100   -1.913940
 C    0.035228    2.661760    0.183272
 C    1.096028    2.509441    2.348201
 H    0.008982   -0.971467   -1.358849
 H    0.095755   -2.489735   -2.276138
 H    1.606273    0.945138   -2.305194
 H   -0.325121    1.849301   -3.524122
 H   -1.762182    3.805122   -0.206714
 H   -0.656385    3.673454    1.963973
 H    2.855306    1.241796    2.418546
 H   -3.052711   -3.156145   -0.872778
 H   -1.988112   -1.970669   -1.628268
 H   -3.474247   -1.663179    1.003787
 H   -1.871273    0.484165   -0.435747
 H   -1.255232   -0.407464    0.950111
 H   -2.458697    1.891084    1.384522
 H   -2.795139    0.548159    2.461998
 H   -4.807920    1.987014    1.390485
 H   -4.988900    0.265067    1.677170
 H   -4.062321    1.461718   -0.976265
 H   -5.708063    0.936679   -0.656826
 H   -5.128978   -1.362272   -0.631532
 H   -4.008433   -0.731162   -1.830183
 H    1.693127   -3.955830    0.300930
 H    0.635669   -3.503373    1.641052
 H    2.873202   -2.285278    1.673686
 H    1.448631   -1.220893    1.652248
 H    2.262771   -1.199493   -2.241906
 H    2.415350   -2.836607   -1.637349
 H    1.153748    2.771240    3.399195
