55 
6d4v_ligand_ani.xyz
 C   -0.080173   -1.059283   -1.202804
 C    2.614790    1.482524   -0.171777
 C    2.343519    1.545920   -1.561910
 C    1.633588    2.608017   -2.066103
 C    1.480881    3.636861   -0.052248
 C    2.535741    2.672080    1.979156
 C    3.590278    0.508603    1.840552
 O   -2.676648   -2.321135    0.963196
 C   -2.119319   -1.660399    0.096824
 C   -2.876407   -0.643577   -0.750391
 C   -4.287113   -0.345992   -0.243145
 C   -4.288518    0.434932    1.072553
 C   -5.711714    0.587385    1.643838
 C   -6.788931    0.576214    0.543032
 C   -6.269241    1.220374   -0.742310
 C   -5.075026    0.430393   -1.314540
 N   -0.786935   -1.809363   -0.166086
 C   -0.027544   -2.780826    0.619077
 C    1.371978   -2.242514    0.898753
 N    2.053667   -1.910486   -0.358370
 C    1.218256   -1.774599   -1.547042
 S    3.541744   -1.183964   -0.268307
 O    3.994109   -0.967183   -1.632686
 O    4.331098   -1.972779    0.661346
 C    3.250175    0.396784    0.509942
 N    1.186912    3.650221   -1.327767
 C    2.209515    2.598858    0.598865
 C    3.229911    1.654274    2.573401
 H    0.150480   -0.038574   -0.859924
 H   -0.695360   -0.976385   -2.103589
 H    2.723655    0.785155   -2.229956
 H    1.400954    2.653363   -3.126560
 H    1.140970    4.484676    0.544071
 H    2.232316    3.551475    2.541468
 H    4.126973   -0.303397    2.319987
 H   -2.942558   -1.039337   -1.775635
 H   -2.297675    0.288433   -0.815355
 H   -4.780473   -1.310093   -0.061409
 H   -3.851430    1.427414    0.887311
 H   -3.636856   -0.064890    1.796698
 H   -5.765195    1.522581    2.214762
 H   -5.920976   -0.221784    2.354078
 H   -7.693731    1.085138    0.894907
 H   -7.083592   -0.459691    0.328201
 H   -5.960505    2.251823   -0.524426
 H   -7.066259    1.289273   -1.491281
 H   -5.419752   -0.284528   -2.072460
 H   -4.398901    1.127273   -1.828725
 H    0.022007   -3.750153    0.101814
 H   -0.570648   -2.945326    1.550372
 H    1.972103   -2.981148    1.439529
 H    1.284197   -1.346684    1.532228
 H    1.771866   -1.241032   -2.318459
 H    0.999201   -2.774469   -1.940620
 H    3.499427    1.714306    3.624241
