49 
6d4w_ligand_xtb.xyz
 C   -0.624191   -2.467414    0.803693
 N    0.395261   -0.455290   -0.209668
 C   -0.863075   -0.152633   -0.860603
 C    2.558116    1.818231   -0.458900
 C    2.950481    3.087368   -0.121121
 C    4.533489    1.016843    0.699878
 C    5.053731   -1.335085    0.825035
 C   -3.818638    0.644596    1.267426
 F   -4.111571    3.990097   -0.055904
 C   -4.162836    2.643955    0.024366
 C   -4.609369    1.921776   -1.066171
 C   -4.650205    0.541463   -0.978157
 C   -4.254120   -0.111241    0.182916
 C   -4.292394   -1.611149    0.290706
 C   -3.018409   -2.150506    0.933090
 O   -3.026839   -2.622269    2.054235
 N   -1.885048   -2.086161    0.196676
 C    0.236230   -1.216575    1.012895
 C   -1.697073   -1.423327   -1.072514
 S    1.590406   -1.057252   -1.237983
 O    1.538966   -2.491500   -1.335917
 O    1.504868   -0.308086   -2.455917
 C    3.065593   -0.618255   -0.324212
 C    3.355711    0.732663   -0.045855
 N    4.054404    3.363779    0.589121
 C    4.808366    2.376544    0.977305
 C    5.367265   -0.037932    1.125013
 C    3.889597   -1.624087    0.094129
 C   -3.767123    2.024152    1.196177
 H   -0.100440   -3.159360    0.138443
 H   -0.840310   -2.950868    1.757487
 H   -0.625158    0.309102   -1.819052
 H   -1.410930    0.559401   -0.234365
 H    1.672177    1.634312   -1.041322
 H    2.374306    3.952898   -0.418202
 H    5.691406   -2.144430    1.145509
 H   -3.522314    0.142222    2.176162
 H   -4.918746    2.436761   -1.961620
 H   -5.004037   -0.030359   -1.823976
 H   -4.459775   -2.072755   -0.683139
 H   -5.111545   -1.904919    0.952522
 H    1.231923   -1.494446    1.361674
 H   -0.231972   -0.560769    1.754405
 H   -1.139266   -2.097351   -1.733514
 H   -2.647133   -1.171347   -1.535774
 H    5.692685    2.641378    1.543984
 H    6.257221    0.200617    1.688943
 H    3.625846   -2.641494   -0.151044
 H   -3.431447    2.618791    2.031050
