61 
6d59_ligand_dft.xyz
 N    0.905292    1.053693   -0.520775
 N    5.364649    2.383394    1.255140
 C   -1.363223   -1.460492   -1.811003
 C   -0.205580    0.637383   -1.035788
 C    1.714134   -0.064754   -0.450804
 C    3.034422   -0.154420    0.059420
 C    3.612069   -1.434099   -0.080281
 C    1.605752   -2.440353   -1.097314
 C    3.212860    2.025805    1.456527
 C    5.106197    1.257796    0.600304
 C   -1.913065    1.685587    0.178766
 C   -0.981242    2.738390   -1.769771
 C   -3.717197   -0.995746   -1.016147
 C   -4.689770   -0.917026   -0.017250
 C   -4.328048   -1.360418    1.249817
 N   -0.215397   -0.695345   -1.367284
 C   -2.773054   -2.346947    2.964095
 C   -3.075114   -1.881370    1.565794
 C    1.033075   -1.173868   -0.984188
 C    3.717057    0.957110    0.659503
 C    1.841866    2.268196    2.021022
 C    6.202503    0.535925   -0.125606
 C   -3.180425    2.507574    0.084929
 C   -2.209707    3.615786   -1.929764
 C   -2.139307   -1.941098    0.534450
 C   -6.074629   -0.381980   -0.268928
 C   -2.445690   -1.496723   -0.752928
 C    2.915488   -2.506866   -0.636412
 F   -5.248537   -1.276824    2.232241
 N    4.202565    2.836341    1.813849
 N   -1.356579    1.463545   -1.160948
 N   -2.837632    3.823429   -0.572962
Cl    3.729663   -4.064260   -0.731906
 H   -1.008041   -2.466907   -2.047732
 H   -1.754840   -1.026949   -2.736577
 H    4.613094   -1.602683    0.296488
 H    1.102317   -3.302129   -1.518710
 H   -2.166523    0.723239    0.627745
 H   -1.175361    2.174303    0.838803
 H   -0.204420    3.255673   -1.182918
 H   -0.560741    2.551023   -2.760476
 H   -3.956424   -0.638466   -2.015686
 H   -2.938980   -1.547538    3.693106
 H   -3.422902   -3.181199    3.247704
 H   -1.734862   -2.676162    3.046414
 H    1.198384    2.832962    1.330872
 H    1.319369    1.329618    2.246056
 H    1.944600    2.845393    2.945819
 H    7.049574    1.216360   -0.253479
 H    6.567648   -0.342026    0.426086
 H    5.880694    0.183687   -1.113905
 H   -3.607233    2.726555    1.065414
 H   -3.922974    2.017769   -0.549102
 H   -2.970037    3.133678   -2.548068
 H   -1.963510    4.599250   -2.334795
 H   -1.139559   -2.314231    0.746639
 H   -6.174045   -0.027886   -1.299198
 H   -6.831505   -1.155889   -0.105450
 H   -6.317937    0.442950    0.409878
 H   -2.164766    4.317830    0.024281
 H   -3.664975    4.419871   -0.646766
