36 
6d6t_ligand_ani.xyz
 C    5.059598    1.836347   -0.519637
 C    4.919029    0.334787   -0.423824
 C    3.202478   -1.228068    0.032441
 C    1.744125   -1.414396    0.194753
 C    0.712694   -0.571540   -0.168867
 C    0.592135    0.758066   -0.839771
 C   -1.316247    1.752165    0.407883
 C   -2.185661    0.554280    0.096949
 C   -1.779953   -0.792288   -0.012140
 C   -0.040181   -2.395692    0.798408
 C   -2.728177   -1.764982   -0.337318
 C   -4.065008   -1.446453   -0.509297
 C   -4.456123   -0.129051   -0.332033
 C   -3.544074    0.855819   -0.017930
 C    0.796243    2.879427    0.520233
 F   -5.752069    0.195797   -0.467437
 N   -0.007444    1.778927    0.010265
 N   -0.444206   -1.224504    0.210897
 N    1.250472   -2.536948    0.801115
 O    3.511301    0.049467   -0.278524
 O    4.027427   -2.099227    0.167224
 O   -1.799533    2.712452    0.991588
 H    4.517485    2.219792   -1.389298
 H    4.665939    2.318168    0.380414
 H    6.114307    2.110248   -0.621381
 H    5.453487   -0.076252    0.436905
 H    5.286022   -0.169894   -1.322643
 H   -0.012881    0.658726   -1.755505
 H    1.580575    1.107996   -1.136969
 H   -0.751419   -3.087869    1.233400
 H   -2.399304   -2.790559   -0.479528
 H   -4.799608   -2.203258   -0.761746
 H   -3.872413    1.879009    0.128780
 H    0.355886    3.839883    0.237992
 H    0.854817    2.840318    1.613032
 H    1.805143    2.797143    0.106126
