36 
6d6t_ligand_xtb.xyz
 C    5.316808    1.180020    0.293091
 C    4.694520    0.521846   -0.929879
 C    3.139848   -1.049365   -0.090526
 C    1.709929   -1.293501    0.136134
 C    0.615860   -0.557812   -0.273233
 C    0.414292    0.705585   -1.030831
 C   -1.234585    1.675645    0.497137
 C   -2.159067    0.557361    0.096903
 C   -1.807892   -0.797795    0.044003
 C   -0.009241   -2.302889    0.893408
 C   -2.782772   -1.766740   -0.184870
 C   -4.101694   -1.408813   -0.376236
 C   -4.437597   -0.065593   -0.326220
 C   -3.493319    0.910131   -0.078450
 C    0.943570    2.716875    0.306446
 F   -5.717517    0.293774   -0.518467
 N   -0.029940    1.735203   -0.110886
 N   -0.480642   -1.209000    0.223627
 N    1.281985   -2.373599    0.858641
 O    3.336486    0.149097   -0.687901
 O    4.032384   -1.796052    0.205384
 O   -1.605781    2.497670    1.313788
 H    4.742664    2.055408    0.588514
 H    5.338902    0.474922    1.120231
 H    6.333703    1.484828    0.063880
 H    5.261751   -0.372405   -1.206397
 H    4.654572    1.214146   -1.773982
 H   -0.344804    0.556619   -1.809908
 H    1.348292    1.022027   -1.491155
 H   -0.645455   -2.992601    1.409643
 H   -2.493560   -2.805563   -0.224565
 H   -4.862774   -2.149542   -0.560822
 H   -3.782242    1.946742   -0.004817
 H    1.227299    3.346576   -0.538618
 H    0.491210    3.331401    1.082509
 H    1.831601    2.219805    0.700581
