36 
6d6u_ligand_xtb.xyz
 C    4.908161    1.859476   -0.844253
 C    4.785551    0.377346   -0.543291
 C    3.136803   -1.189876    0.065958
 C    1.691865   -1.400953    0.218780
 C    0.641197   -0.602642   -0.186543
 C    0.514704    0.716332   -0.861039
 C   -1.194777    1.626805    0.638471
 C   -2.123016    0.563561    0.116175
 C   -1.802054   -0.793857   -0.013255
 C   -0.090800   -2.408262    0.813896
 C   -2.786453   -1.717520   -0.359161
 C   -4.085272   -1.311902   -0.588665
 C   -4.391913    0.033002   -0.459166
 C   -3.438207    0.963348   -0.098822
 C    1.015038    2.615393    0.641176
 F   -5.652257    0.438889   -0.685445
 N    0.043552    1.692421    0.102800
 N   -0.497054   -1.254317    0.204990
 N    1.198120   -2.517269    0.836248
 O    3.402378    0.062806   -0.365257
 O    3.994368   -2.000147    0.291999
 O   -1.590977    2.404159    1.486578
 H    4.356578    2.108571   -1.747190
 H    4.513295    2.446902   -0.019381
 H    5.953892    2.113688   -0.989229
 H    5.328820    0.107645    0.368822
 H    5.181401   -0.229912   -1.365050
 H   -0.201108    0.644391   -1.690430
 H    1.481931    1.037198   -1.243235
 H   -0.771074   -3.113034    1.246850
 H   -2.519907   -2.758348   -0.459064
 H   -4.852961   -2.017349   -0.862544
 H   -3.705637    1.999912    0.033331
 H    1.366596    3.289280   -0.142041
 H    0.531520    3.191897    1.427594
 H    1.863532    2.067249    1.054177
