60 
6d8e_ligand_ani.xyz
 C    2.216599    3.348903    0.218855
 C   -7.620655   -0.036620    0.260854
 C   -0.015715    2.616998    0.980915
 C   -0.820286    0.550493    0.500864
 C   -5.222264   -1.169798   -0.541049
 C   -1.890482    0.768263    1.378886
 C   -1.936946    2.016943    1.978455
 C   -1.619901   -1.476195   -0.719453
 C   -3.927650   -1.783084   -0.998052
 C   -6.281948   -1.973265   -0.122320
 C   -7.489200   -1.415631    0.284851
 N    4.098552    3.884709   -0.582751
 N    2.970558    4.402711   -0.065693
 C    2.869446    2.133021   -0.096104
 N    0.964133    3.556152    0.793283
 C    5.159627    4.767008   -1.017770
 C   -6.590776    0.794043   -0.155236
 C   -5.391374    0.215690   -0.553126
 C    0.723026   -0.938410   -0.664904
 C    1.194808   -0.366571   -1.845715
 C    2.512896   -0.599280   -2.224904
 C    4.076920    2.534735   -0.617262
 C    3.362054   -1.383563   -1.450790
 C    2.871710   -1.978234   -0.285529
 C    1.545021   -1.751214    0.101563
 C    4.962810   -3.195695    0.358892
 C    5.483801   -4.181463    1.389278
 C    6.429954   -3.477658    2.365242
 F   -8.783207    0.514276    0.652397
 N    0.138008    1.461090    0.341471
 N   -1.023582    2.974266    1.782904
 N   -0.616600   -0.643612   -0.217094
 N    3.653860   -2.817921    0.532168
 O   -1.392344   -2.503871   -1.307757
 O   -2.844596   -0.977288   -0.492546
 O    5.690405   -2.767640   -0.519581
 H   -2.633662    0.012843    1.577575
 H   -2.752591    2.274538    2.650746
 H   -3.850941   -1.816132   -2.089073
 H   -3.819077   -2.804243   -0.623631
 H   -6.163698   -3.054972   -0.108940
 H   -8.321011   -2.029270    0.617236
 H    2.496140    1.135116    0.063316
 H    0.792512    4.472446    1.182173
 H    4.802126    5.416281   -1.822205
 H    5.501785    5.382418   -0.180790
 H    5.992737    4.161942   -1.385002
 H   -6.737161    1.870333   -0.159298
 H   -4.570177    0.849167   -0.877502
 H    0.547252    0.276185   -2.435037
 H    2.901149   -0.144750   -3.134649
 H    4.924156    1.982731   -1.011294
 H    4.392092   -1.539753   -1.741771
 H    1.148174   -2.188900    1.014864
 H    6.030799   -4.949773    0.834607
 H    4.662386   -4.675339    1.919638
 H    7.241442   -2.991124    1.815619
 H    5.900300   -2.710088    2.939192
 H    6.865509   -4.192205    3.070368
 H    3.167550   -3.213841    1.322714
