44 
6da4_ligand_ani.xyz
 N   -1.749279   12.134797    4.100618
 C   -0.510228   12.103258    4.702100
 N   -3.176347   13.833246    3.198687
 C   -0.011100   16.580221    3.979150
 C   -0.924036   14.234006    4.104222
 C    0.801795   18.591169    5.045160
 C   -0.299866   19.752136    6.870502
 C    0.038279   13.350778    4.746591
 C    1.290709   14.752954    6.462949
 C    2.658611   16.260770    7.624751
 C    1.361405   13.671682    5.388602
 C    2.341688   17.122062    3.871924
 C    2.101511   18.251811    4.640137
 F    4.045016   20.851747    5.859459
 C    3.017572   19.988108    5.951249
 O    3.191062   19.031603    4.977442
 C   -3.207561   15.150971    3.015150
 C    1.284028   16.292722    3.534794
 O    2.601075   15.211153    6.691944
 N   -0.383398   20.720487    7.691354
 C    1.686087   20.721117    5.816723
 N    0.622022   19.740934    5.842806
 C   -0.255130   17.765532    4.667860
 F    3.099891   19.408831    7.185064
 N   -2.254477   16.047387    3.302239
 C   -2.035241   13.421366    3.752404
 C   -1.094056   15.593595    3.786465
 H   -2.373843   11.356800    3.969536
 H   -0.101251   11.171066    5.071500
 H   -0.908791   18.842600    6.895267
 H    0.645121   15.581981    6.138868
 H    0.852207   14.344984    7.389492
 H    3.710333   16.536451    7.740191
 H    2.100528   17.145257    7.281515
 H    2.263160   15.953820    8.606125
 H    1.785474   12.761828    5.830523
 H    2.094776   13.999122    4.644440
 H    3.357883   16.902194    3.565379
 H   -4.120486   15.557072    2.584504
 H    1.461642   15.404167    2.934378
 H   -1.120443   20.542817    8.370055
 H    1.681399   21.284581    4.875710
 H    1.539044   21.406974    6.651873
 H   -1.283783   18.049842    4.876300
