44 
6da4_ligand_xtb.xyz
 N   -1.749333   12.127108    4.093002
 C   -0.511602   12.073631    4.685648
 N   -3.114653   13.878397    3.192308
 C    0.098115   16.527651    4.038629
 C   -0.871293   14.197865    4.098820
 C    0.883574   18.530277    5.140931
 C   -0.255976   19.769841    6.912864
 C    0.067098   13.308695    4.714758
 C    1.219022   14.585906    6.537503
 C    2.352545   16.254103    7.737862
 C    1.380958   13.657669    5.327946
 C    2.374417   17.227005    3.747189
 C    2.151059   18.299347    4.594545
 F    4.021340   21.000256    5.634210
 C    3.062026   20.066855    5.814614
 O    3.242035   19.114667    4.867862
 C   -3.104713   15.184901    3.012752
 C    1.354799   16.338816    3.472527
 O    2.404785   15.331250    6.682691
 N   -0.354029   20.833816    7.587806
 C    1.674150   20.704863    5.802233
 N    0.693362   19.656871    5.941969
 C   -0.140120   17.637917    4.834678
 F    3.310263   19.547194    7.058640
 N   -2.121290   16.028719    3.286746
 C   -2.004365   13.408114    3.745392
 C   -0.988317   15.560812    3.797935
 H   -2.380654   11.355195    3.960515
 H   -0.123338   11.141890    5.049436
 H   -0.871167   18.871447    7.024481
 H    0.369461   15.268812    6.379096
 H    1.015039   14.005035    7.451015
 H    3.286672   16.810402    7.718336
 H    1.513811   16.951778    7.615083
 H    2.246076   15.748672    8.706015
 H    1.899694   12.747049    5.627777
 H    2.011557   14.187512    4.613232
 H    3.361058   17.099592    3.333710
 H   -3.999888   15.618639    2.588039
 H    1.522696   15.510979    2.801547
 H   -1.076133   20.823145    8.297474
 H    1.556538   21.241214    4.853464
 H    1.554777   21.393629    6.641518
 H   -1.137057   17.798462    5.213202
