37 
6dai_ligand_xtb.xyz
 C    2.797983   -0.367793   -1.819089
 C    3.589458   -1.244378   -0.834884
 N    2.887961   -1.128210    0.442212
 C    1.966727    0.472668   -0.884046
 C    2.092199    0.023885    0.366064
 C    1.374262    0.600378    1.539228
 C    0.778647    1.956445    1.157218
 C    0.059856    1.911443   -0.201638
 C   -1.077545    0.943373   -0.169894
 C   -1.084716   -0.411364   -0.393081
 N   -2.382221   -0.797184   -0.217944
 C   -3.208508   -1.907052   -0.249771
 C   -4.459386   -1.536426    0.042005
 C   -4.521237   -0.053928    0.297276
 C   -3.097340    0.326754    0.101092
 N   -2.342797    1.386692    0.137591
 C    1.068887    1.583628   -1.310602
 C    3.676676   -1.402448    1.614477
 H    2.159447   -0.972762   -2.470087
 H    3.449105    0.231369   -2.458633
 H    3.629126   -2.294320   -1.136914
 H    4.622723   -0.878634   -0.734714
 H    0.579550   -0.085482    1.849689
 H    2.051626    0.726805    2.387769
 H    1.580761    2.694955    1.093960
 H    0.075549    2.279700    1.926437
 H   -0.377997    2.897772   -0.385815
 H   -0.297901   -1.088346   -0.649972
 H   -2.818982   -2.881447   -0.481321
 H   -5.318696   -2.176293    0.095222
 H   -4.874640    0.175636    1.304431
 H   -5.183362    0.455819   -0.405523
 H    1.662931    2.477625   -1.535293
 H    0.539894    1.309605   -2.228216
 H    3.036118   -1.398355    2.494384
 H    4.492731   -0.677978    1.762207
 H    4.115644   -2.395862    1.513249
