41 
6dak_ligand_xtb.xyz
 O    2.846727   -0.405642   -2.244988
 C    3.052958    0.022307   -1.126233
 C    3.964002   -0.658838   -0.156483
 C    3.693068   -0.709054    1.207087
 C    4.560594   -1.365996    2.061796
 C    5.704342   -1.969645    1.565850
 C    5.971226   -1.934769    0.207000
 C    5.099956   -1.290559   -0.651533
 N    2.509835    1.171534   -0.663647
 C    1.545044    1.949307   -1.416277
 C    0.308670    2.175989   -0.587736
 C    0.204030    3.303456    0.218976
 C   -0.911836    3.486271    1.018104
 C   -1.928946    2.551460    1.022112
 C   -1.838737    1.413244    0.220823
 C   -2.891953    0.415854    0.189385
 C   -4.100894    0.397478    0.858617
 N   -4.711715   -0.751873    0.465542
 C   -5.869482   -1.491348    0.639077
 C   -5.802887   -2.597049   -0.109469
 C   -4.504071   -2.642689   -0.867914
 C   -3.865385   -1.380313   -0.413598
 N   -2.771076   -0.708709   -0.599080
 C   -0.708332    1.236282   -0.576003
 H    2.789967   -0.263804    1.601550
 H    4.342308   -1.409029    3.119025
 H    6.382092   -2.475013    2.238182
 H    6.857161   -2.414038   -0.182669
 H    5.283562   -1.264445   -1.715065
 H    2.730869    1.491499    0.265651
 H    1.321169    1.371299   -2.315825
 H    1.992230    2.908115   -1.706104
 H    0.993395    4.042280    0.216615
 H   -0.987878    4.366126    1.640857
 H   -2.795440    2.705116    1.646946
 H   -4.546117    1.085244    1.546799
 H   -6.650817   -1.152782    1.294318
 H   -6.550779   -3.362381   -0.182517
 H   -4.659360   -2.657710   -1.948408
 H   -3.908077   -3.520763   -0.612098
 H   -0.645612    0.350437   -1.188546
