41 
6dak_ligand_ani.xyz
 O    1.881123   -0.712467   -1.689242
 C    2.657850   -0.065919   -0.998289
 C    3.686619   -0.738808   -0.136475
 C    4.264822   -0.139192    0.984298
 C    5.210352   -0.829649    1.734746
 C    5.582725   -2.122147    1.371969
 C    4.995625   -2.729378    0.264703
 C    4.044181   -2.042118   -0.479668
 N    2.665299    1.296817   -0.998169
 C    1.593800    2.040467   -1.639310
 C    0.409117    2.276262   -0.717746
 C    0.345398    3.405462    0.099420
 C   -0.724354    3.583530    0.973757
 C   -1.739580    2.640437    1.041528
 C   -1.685080    1.504463    0.230875
 C   -2.730920    0.482522    0.249948
 C   -3.846377    0.386515    1.053690
 N   -4.472918   -0.763616    0.629290
 C   -5.603912   -1.570660    0.868468
 C   -5.599567   -2.605530    0.024260
 C   -4.384149   -2.538450   -0.882420
 C   -3.718650   -1.285541   -0.386159
 N   -2.656747   -0.576076   -0.650061
 C   -0.608629    1.330711   -0.634992
 H    3.963984    0.856375    1.307894
 H    5.660605   -0.352845    2.602050
 H    6.325596   -2.658125    1.956734
 H    5.276811   -3.741284   -0.015459
 H    3.558180   -2.498013   -1.337971
 H    3.307828    1.791526   -0.402470
 H    1.277527    1.452137   -2.504239
 H    1.998108    2.991230   -1.999233
 H    1.136823    4.150198    0.051112
 H   -0.765263    4.467143    1.604760
 H   -2.573262    2.789354    1.723281
 H   -4.230443    0.993869    1.857683
 H   -6.309848   -1.306724    1.644176
 H   -6.348268   -3.384549   -0.018476
 H   -4.654320   -2.461336   -1.942033
 H   -3.732827   -3.413991   -0.780318
 H   -0.585289    0.427026   -1.236604
