15 
6dcz_ligand_ani.xyz
 O    2.421172   -1.245564    0.010732
 C    2.026141    0.039229   -0.001385
 O    2.819308    0.941751   -0.014244
 C    0.548808    0.276401    0.002330
 O    0.233177    1.606100    0.002602
 C   -1.050235    1.973770    0.004670
 C   -2.094886    1.125347    0.003840
 C   -1.848508   -0.295487   -0.001685
 O   -2.685259   -1.197746   -0.007851
 C   -0.427466   -0.657082    0.000599
 O   -0.193796   -1.989843   -0.000553
 H    1.669126   -1.860439    0.017751
 H   -1.149448    3.053859    0.006284
 H   -3.109817    1.505490    0.006634
 H   -1.089792   -2.389568   -0.006374
