57 
6df7_ligand_ani.xyz
 C   11.430205  -30.642906   89.514771
 C   13.390222  -29.214710   89.533822
 N    9.741283  -29.865693   87.810223
 C   12.890592  -28.384488   88.527333
 C   10.934472  -29.829806   88.500730
 C   11.415215  -31.043195   92.652844
 N   14.731501  -25.451180   85.180951
 C   13.305365  -27.135444   85.457466
 C   13.670123  -27.207347   88.102281
 C    8.679253  -30.832646   87.973032
 C   12.679138  -30.313720   90.027966
 C   14.683766  -25.701172   86.510751
 C   11.628688  -28.713801   87.997864
 O   16.199007  -24.044742   87.264882
 N   15.190759  -25.434712   88.794291
 C   18.057692  -24.555740   91.174543
 C   18.462480  -25.217653   92.253671
 C   13.590245  -31.864381   94.267120
 C   13.809714  -26.755434   86.751345
 C   15.910199  -24.768587   89.890153
 O   12.444789  -31.264914   94.845755
 C   14.374085  -26.511368   89.051711
 C   13.898673  -26.319631   84.534772
 C   15.436177  -24.969994   87.504558
 N   12.558767  -31.725525   92.045603
 C   13.221641  -32.620274   92.993092
 C    9.773638  -28.801793   86.957214
 C   17.384368  -25.187873   89.987787
 C   13.360209  -31.141284   91.082425
 C   11.829615  -30.354433   93.955505
 O   14.574232  -31.289496   91.082436
 N   10.865732  -28.094796   87.019693
 H   10.876086  -31.502289   89.882403
 H   14.385992  -29.046556   89.933045
 H   10.999798  -30.309430   91.958952
 H   10.645384  -31.792770   92.877689
 H   15.306381  -24.723836   84.778537
 H   12.563706  -27.894604   85.261649
 H    9.038642  -31.845617   87.765437
 H    8.269686  -30.797971   88.987845
 H    7.881619  -30.593177   87.266599
 H   18.188363  -23.472036   91.131380
 H   18.928219  -24.711885   93.095609
 H   18.351538  -26.298108   92.332504
 H   14.002308  -32.542599   95.021603
 H   14.349150  -31.101256   94.030890
 H   15.832646  -23.690851   89.730281
 H   15.375816  -25.015972   90.812309
 H   14.293938  -26.763608   90.103646
 H   13.786774  -26.290157   83.458652
 H   12.528003  -33.432673   93.241843
 H   14.109189  -33.031914   92.508876
 H    8.944990  -28.599140   86.291787
 H   17.443379  -26.280798   90.055589
 H   17.888809  -24.879400   89.065318
 H   12.507645  -29.513761   93.738242
 H   10.948095  -29.958854   94.469732
