52 
6dgl_ligand_ani.xyz
 C   -5.495790    4.120166   -1.006394
 C   -1.419360   -1.847693    1.586372
 C   -1.042275   -2.739186   -0.802846
 C    0.254541   -2.007717   -1.098812
 C    2.688421   -0.668464   -1.534111
 C    1.502303    0.049155   -1.372829
 C    0.299863   -0.612459   -1.143301
 C    4.606226    0.584084   -0.435653
 C    6.223500    1.667650    1.231539
 C   -4.618884   -2.756941    1.751672
 C   -3.948186   -1.511226    1.307952
 C   -2.660211   -1.082540    1.242979
 C   -3.892545    0.502639    0.527769
 C   -4.458934    1.744783   -0.000888
 C   -5.838897    1.886163   -0.166140
 C   -6.353803    3.074900   -0.668559
 C   -4.120124    3.977507   -0.841260
 C   -3.600240    2.790665   -0.338111
 C   -1.192302   -3.070509    0.680960
 C    1.439850   -2.724971   -1.277396
 C    2.641408   -2.062635   -1.490458
 C    4.005046    0.056442   -1.705703
 C    4.203320    0.519886    0.863023
 N   -2.646115    0.211966    0.739881
 N    5.079685    1.093491    1.759553
 O   -4.743892   -0.499002    0.844670
 O   -1.116317   -3.977341   -1.493566
 O    3.112947    0.003202    1.440789
 O    7.099322    2.219987    1.842154
 S    6.153256    1.432924   -0.543286
 H   -5.901291    5.048809   -1.399372
 H   -0.563945   -1.164538    1.525772
 H   -1.468179   -2.188960    2.629465
 H   -1.885137   -2.096398   -1.104692
 H    1.521376    1.136916   -1.421568
 H   -0.607593   -0.039159   -0.974236
 H   -5.370191   -2.551789    2.521294
 H   -3.891112   -3.457443    2.170742
 H   -5.125519   -3.250241    0.914303
 H   -6.499210    1.065820    0.099614
 H   -7.427507    3.188367   -0.797633
 H   -3.452618    4.793594   -1.105357
 H   -2.530624    2.659464   -0.199140
 H   -2.033850   -3.764407    0.773876
 H   -0.298262   -3.613763    1.008250
 H    1.412331   -3.811123   -1.254652
 H    3.561847   -2.632767   -1.609240
 H    3.872783    0.896975   -2.401591
 H    4.730929   -0.615489   -2.183978
 H    4.905932    1.124154    2.754310
 H   -1.103984   -3.771953   -2.437354
 H    2.512703   -0.334006    0.756527
