50 
6dgt_ligand_ani.xyz
 N   42.615842   60.648307  132.213078
 C   42.028119   61.312473  133.282318
 C   41.273825   60.845990  134.371557
 C   41.127258   63.133948  135.212912
 C   44.054051   61.328492  130.294641
 C   40.948853   59.431965  134.503413
 C   40.849094   57.320559  134.089292
 C   43.015388   66.182892  128.039976
 C   42.185411   65.088380  128.345917
 C   43.404048   64.734984  130.443087
 C   44.211332   65.869997  130.145699
 C   43.990119   66.553401  128.916266
 C   43.701350   64.042347  131.663377
 C   44.651616   64.569670  132.502422
 C   45.372408   65.715211  132.099244
 N   45.184492   66.348586  130.968187
 N   43.054935   62.838933  132.037291
 C   43.223577   61.567608  131.513757
 C   42.303440   62.680183  133.198098
 C   40.837549   61.762471  135.316118
 C   41.879516   63.605557  134.136341
 C   42.378471   64.400724  129.513498
 F   41.556948   63.366079  129.778598
 F   44.776048   67.598767  128.641710
 C   40.595614   64.079229  136.235933
 N   41.351935   58.486821  133.610479
 N   40.186043   57.530140  135.193537
 N   40.247698   58.875564  135.460618
 C   41.306727   65.163986  136.703730
 C   40.759259   66.064188  137.639441
 N   39.538721   65.901208  138.137637
 C   38.844217   64.840833  137.702808
 C   39.312564   63.923439  136.780041
 F   42.579348   65.400732  136.297143
 N   41.481334   67.172461  138.015242
 H   44.067163   60.259504  130.074342
 H   43.654627   61.869521  129.431816
 H   45.079100   61.677695  130.459953
 H   40.985974   56.360259  133.612962
 H   42.889940   66.744489  127.120284
 H   41.395442   64.776230  127.672777
 H   44.847195   64.092474  133.459278
 H   46.143224   66.118224  132.755253
 H   40.269904   61.377690  136.161080
 H   42.119042   64.658015  134.028423
 H   41.910563   58.691085  132.786582
 H   37.848469   64.721802  138.123833
 H   38.684016   63.099471  136.458570
 H   41.157582   67.620434  138.859205
 H   42.480607   67.116980  137.901236
