50 
6dgt_ligand_xtb.xyz
 N   42.620319   60.759716  132.266191
 C   42.019925   61.406471  133.318540
 C   41.231679   60.910752  134.363598
 C   41.087358   63.182985  135.234170
 C   44.057231   61.402285  130.373276
 C   40.907908   59.507348  134.426460
 C   40.826134   57.430546  133.889916
 C   43.112721   65.858267  127.855770
 C   42.317310   64.771463  128.232654
 C   43.429621   64.673949  130.396996
 C   44.194206   65.825936  130.038797
 C   44.017954   66.371039  128.743599
 C   43.673116   64.126983  131.687175
 C   44.526555   64.791206  132.540624
 C   45.184587   65.942403  132.085344
 N   45.053295   66.419833  130.880743
 N   43.073089   62.934723  132.105923
 C   43.228786   61.674352  131.571570
 C   42.315686   62.781027  133.251747
 C   40.782279   61.819411  135.309959
 C   41.855352   63.686259  134.188619
 C   42.476198   64.206166  129.468127
 F   41.658253   63.189023  129.810472
 F   44.754125   67.431979  128.393553
 C   40.584453   64.089551  136.277330
 N   41.340758   58.616136  133.483494
 N   40.140285   57.587921  134.986231
 N   40.187318   58.880063  135.325173
 C   41.367355   65.087527  136.828712
 C   40.866220   65.933512  137.833107
 N   39.622612   65.798683  138.279912
 C   38.860559   64.850519  137.756322
 C   39.278012   63.979866  136.772118
 F   42.666125   65.257091  136.446612
 N   41.616850   66.948596  138.340824
 H   44.453954   60.392843  130.440897
 H   43.454318   61.466145  129.468020
 H   44.877358   62.114286  130.298418
 H   40.966545   56.500840  133.378220
 H   43.002595   66.305583  126.881320
 H   41.569100   64.379601  127.562673
 H   44.705990   64.412773  133.534716
 H   45.866836   66.474037  132.734104
 H   40.194106   61.441642  136.130984
 H   42.071962   64.740111  134.107382
 H   41.914907   58.872890  132.689890
 H   37.860337   64.794478  138.163126
 H   38.614489   63.230513  136.373820
 H   41.259536   67.393697  139.168038
 H   42.613732   66.916973  138.213731
