75 
6dgx_ligand_xtb.xyz
 N   -6.989861    2.248040   -0.960588
 C   -6.097603    1.210360   -1.013011
 C   -6.077435    0.239312   -0.004003
 C   -5.132618   -0.764216   -0.021279
 C   -4.200079   -0.811750   -1.042169
 C   -4.202463    0.138210   -2.048153
 C   -5.146868    1.142906   -2.038179
 S   -2.970673   -2.103594   -1.025727
 O   -3.591357   -3.371751   -0.788688
 O   -2.170076   -1.965175   -2.218634
 N   -1.989363   -1.761906    0.268710
 C   -2.149127   -2.494604    1.500962
 C   -0.823216   -3.102744    1.979680
 C   -0.314472   -4.108758    0.952113
 C   -1.017285   -3.763665    3.341349
 C   -1.467684   -0.416615    0.317282
 C   -0.094599   -0.291395   -0.368904
 O   -0.201652   -0.176529   -1.763806
 C    0.687485    0.937621    0.136979
 N    2.026241    0.864426   -0.403350
 C    3.125417    0.961649    0.363258
 O    3.135273    1.162617    1.552592
 O    4.245413    0.813249   -0.395638
 C    5.470390    0.940307    0.303114
 C    5.853782   -0.313595    1.110941
 O    7.256681   -0.220086    1.246357
 C    7.770996    0.254334    0.042991
 O    8.102655   -0.804846   -0.825337
 C    7.747522   -0.437259   -2.140778
 C    6.469141    0.394164   -2.009467
 C    6.660159    1.089249   -0.657137
 C    0.034574    2.270651   -0.274119
 C   -1.035512    2.838711    1.921798
 C   -2.139557    3.143699    2.696994
 C   -3.392374    3.243313    2.114772
 C   -3.532115    3.049410    0.751704
 C   -2.425629    2.743718   -0.021757
 C   -1.167097    2.623010    0.554319
 H   -7.792128    2.143975   -0.362699
 H   -7.137118    2.779657   -1.801941
 H   -6.810430    0.284903    0.787587
 H   -5.114420   -1.525528    0.742303
 H   -3.464303    0.067073   -2.831304
 H   -5.159228    1.886975   -2.820897
 H   -2.569264   -1.842286    2.279314
 H   -2.856208   -3.297553    1.286999
 H   -0.091463   -2.293489    2.081316
 H   -0.261893   -3.647829   -0.031259
 H   -0.993984   -4.955481    0.889049
 H    0.673236   -4.472119    1.226218
 H   -1.758404   -4.556762    3.273940
 H   -1.353167   -3.038733    4.079622
 H   -0.081335   -4.195332    3.686690
 H   -2.168967    0.257509   -0.184084
 H   -1.385466   -0.105589    1.361016
 H    0.492700   -1.189487   -0.112023
 H   -0.821656   -0.864331   -2.080327
 H    0.792096    0.887686    1.224953
 H    2.112086    0.675445   -1.389375
 H    5.406776    1.799302    0.981957
 H    5.568224   -1.214819    0.552355
 H    5.415025   -0.336380    2.106825
 H    8.675682    0.831543    0.285165
 H    7.618767   -1.354886   -2.715094
 H    8.554233    0.160699   -2.590907
 H    6.349572    1.100435   -2.826895
 H    5.595555   -0.254341   -1.973703
 H    6.953650    2.131146   -0.776143
 H   -0.233572    2.205907   -1.328803
 H    0.790782    3.050502   -0.152714
 H   -0.058931    2.771573    2.379020
 H   -2.022248    3.307739    3.758250
 H   -4.254763    3.479869    2.720319
 H   -4.504036    3.134809    0.289104
 H   -2.541649    2.595830   -1.086179
