78 
6dgy_ligand_dft.xyz
 N   -7.943429    0.024841    0.506530
 C   -6.725925   -0.400319    0.005861
 C   -6.227159   -1.674657    0.325376
 C   -4.986338   -2.080272   -0.133803
 C   -4.221426   -1.218759   -0.921282
 C   -4.703463    0.046302   -1.249372
 C   -5.946669    0.450065   -0.792276
 S   -2.592320   -1.702990   -1.416118
 O   -2.195378   -0.812337   -2.506812
 O   -2.571804   -3.145528   -1.581751
 N   -1.579099   -1.339848   -0.153310
 C   -1.537234   -2.253163    0.991092
 C   -0.119389   -2.399351    1.558900
 C   -0.182527   -3.199452    2.861685
 C    0.826778   -3.031132    0.529375
 C   -1.351307    0.083555    0.128841
 C   -0.018202    0.573733   -0.462365
 C    2.302450   -2.854190    0.881923
 O   -0.125353    0.966353   -1.810555
 C    0.630436    1.744424    0.295983
 N    2.034929    1.834655   -0.072852
 C    2.993928    1.198292    0.646219
 O    2.843441    0.699567    1.746686
 O    4.168120    1.220923   -0.025101
 C    5.300051    0.710873    0.671906
 C    5.330924   -0.814083    0.820295
 O    6.703453   -1.087270    1.038833
 C    7.452153   -0.254452    0.204968
 O    7.736417   -0.892558   -1.020575
 C    7.609254    0.055546   -2.062780
 C    6.419552    0.923843   -1.657312
 C    6.577633    0.988279   -0.130256
 C   -0.017329    3.117287    0.044691
 C   -1.906189    3.069802    1.719251
 C   -3.260659    3.049480    2.037221
 C   -4.215813    3.154568    1.029689
 C   -3.805115    3.288646   -0.293534
 C   -2.449713    3.291899   -0.609564
 C   -1.483698    3.176521    0.391759
 H   -8.395914    0.774402    0.004370
 H   -8.587200   -0.698222    0.792269
 H   -6.824024   -2.346558    0.936012
 H   -4.615941   -3.073962    0.096887
 H   -4.106394    0.704269   -1.871292
 H   -6.321195    1.437370   -1.048629
 H   -1.886194   -3.231778    0.651572
 H   -2.225064   -1.897035    1.774449
 H    0.265087   -1.397040    1.800647
 H   -0.830038   -2.711394    3.599011
 H   -0.576898   -4.207009    2.679830
 H    0.809064   -3.303740    3.311046
 H    0.633567   -2.578580   -0.449896
 H    0.583620   -4.097374    0.424155
 H   -2.177288    0.691874   -0.248709
 H   -1.353890    0.205429    1.216352
 H    0.684899   -0.268260   -0.362969
 H    2.947849   -3.234825    0.083588
 H    2.532564   -1.793574    1.034353
 H    2.572054   -3.384002    1.802134
 H   -0.671083    0.305965   -2.272051
 H    0.615648    1.514092    1.365167
 H    2.242234    2.024790   -1.043567
 H    5.346587    1.172189    1.661803
 H    4.768045   -1.178836    1.678135
 H    4.957513   -1.296680   -0.094659
 H    8.387026   -0.032498    0.730956
 H    7.460368   -0.490301   -2.997331
 H    8.527610    0.657045   -2.155133
 H    6.423870    1.910393   -2.126213
 H    5.485068    0.426392   -1.929970
 H    7.059506    1.917970    0.180560
 H    0.542182    3.851811    0.634892
 H    0.119123    3.373201   -1.010266
 H   -1.164506    2.990162    2.511306
 H   -3.571118    2.951783    3.073426
 H   -5.273433    3.129818    1.274680
 H   -4.542733    3.382665   -1.086026
 H   -2.131450    3.357441   -1.646307
