78 
6dh4_ligand_ani.xyz
 N   -8.130405   -0.225082   -0.475028
 C   -6.807313   -0.603301   -0.693393
 C   -6.341540   -1.852987   -0.267015
 C   -5.010999   -2.203439   -0.432465
 C   -4.121060   -1.308615   -1.017273
 C   -4.573505   -0.070523   -1.461556
 C   -5.903200    0.284710   -1.292749
 S   -2.421215   -1.760757   -1.227651
 O   -1.921359   -0.976387   -2.356080
 O   -2.336965   -3.208301   -1.238695
 N   -1.608381   -1.219237    0.119232
 C   -1.634464   -2.033487    1.335680
 C   -0.259746   -2.189948    1.996969
 C   -0.423479   -2.912337    3.336526
 C    0.721242   -2.916600    1.062103
 C   -1.384396    0.220905    0.274651
 C   -0.104202    0.705368   -0.432636
 C    2.147867   -2.979156    1.606102
 O   -0.373973    1.206064   -1.723538
 C    0.664316    1.792400    0.334360
 N    2.053849    1.832070   -0.079177
 C    2.980222    1.056750    0.549605
 O    2.781057    0.399536    1.552891
 O    4.167075    1.127262   -0.099998
 C    5.245950    0.407966    0.517563
 C    5.177418   -1.095604    0.265417
 O    6.520209   -1.531019    0.420717
 C    7.377847   -0.547264   -0.084692
 O    7.741151   -0.829484   -1.416660
 C    7.697159    0.369296   -2.174188
 C    6.536948    1.168214   -1.587865
 C    6.594886    0.796050   -0.101383
 C    0.065616    3.192612    0.156153
 C   -1.731575    3.326516    1.921353
 C   -3.063105    3.423519    2.312748
 C   -4.068648    3.503438    1.353054
 C   -3.730136    3.476353    0.002104
 C   -2.396436    3.384049   -0.387018
 C   -1.379457    3.321171    0.569404
 H   -8.473646    0.493521   -1.096771
 H   -8.786274   -0.989025   -0.389755
 H   -7.035144   -2.549685    0.197947
 H   -4.658908   -3.183594   -0.122978
 H   -3.884008    0.604926   -1.960558
 H   -6.259238    1.258822   -1.621179
 H   -2.027996   -3.019127    1.070423
 H   -2.332438   -1.574140    2.050409
 H    0.151445   -1.186531    2.196642
 H   -1.142608   -2.391712    3.979625
 H   -0.792899   -3.934354    3.179955
 H    0.521926   -2.976970    3.884761
 H    0.722316   -2.413565    0.085236
 H    0.350594   -3.935391    0.870830
 H   -2.246795    0.785780   -0.091367
 H   -1.303900    0.413961    1.347795
 H    0.565096   -0.169708   -0.506191
 H    2.837970   -3.358475    0.843599
 H    2.488411   -1.981642    1.904910
 H    2.224530   -3.643403    2.472795
 H   -0.869259    0.512225   -2.195034
 H    0.691244    1.525859    1.396695
 H    2.276248    2.143839   -1.013548
 H    5.239893    0.608767    1.592651
 H    4.545241   -1.622354    0.985978
 H    4.816306   -1.309712   -0.749606
 H    8.280796   -0.559009    0.541257
 H    7.555954    0.085992   -3.220927
 H    8.647254    0.919861   -2.087978
 H    6.620077    2.242984   -1.762437
 H    5.593029    0.826617   -2.021776
 H    7.099119    1.567842    0.490553
 H    0.692233    3.874513    0.743123
 H    0.172570    3.470727   -0.896920
 H   -0.950459    3.254674    2.677777
 H   -3.316354    3.437882    3.370221
 H   -5.108173    3.582292    1.658950
 H   -4.510462    3.529734   -0.754829
 H   -2.134502    3.317714   -1.441503
