75 
6dh6_ligand_xtb.xyz
 N   -6.994142    2.241076   -0.960204
 C   -6.097703    1.206967   -1.013085
 C   -6.078519    0.231677   -0.008183
 C   -5.131087   -0.769279   -0.026764
 C   -4.195021   -0.810188   -1.044684
 C   -4.195298    0.144896   -2.045785
 C   -5.142207    1.147283   -2.034309
 S   -2.965792   -2.102033   -1.028264
 O   -3.587849   -3.369947   -0.793162
 O   -2.163105   -1.963759   -2.219727
 N   -1.987103   -1.761721    0.268559
 C   -2.148311   -2.498112    1.498473
 C   -0.823866   -3.110071    1.976370
 C   -0.314307   -4.111726    0.944959
 C   -1.021386   -3.777474    3.334400
 C   -1.466465   -0.416102    0.320859
 C   -0.093254   -0.288547   -0.364624
 O   -0.198560   -0.173550   -1.759609
 C    0.687352    0.941113    0.142017
 N    2.025990    0.868771   -0.398721
 C    3.125454    0.961861    0.367948
 O    3.136041    1.161038    1.557570
 O    4.244975    0.812148   -0.391345
 C    5.470184    0.938171    0.307115
 C    5.854672   -0.317601    1.111594
 O    7.257866   -0.224951    1.244716
 C    7.769927    0.251560    0.041416
 O    8.095650   -0.806068   -0.831089
 C    7.742141   -0.431074   -2.144803
 C    6.467306    0.405401   -2.009790
 C    6.659538    1.091699   -0.653146
 C    0.034710    2.274473   -0.268438
 C   -1.041610    2.836857    1.925923
 C   -2.147615    3.141009    2.698609
 C   -3.398258    3.245526    2.112606
 C   -3.533845    3.056886    0.748390
 C   -2.425539    2.751037   -0.022427
 C   -1.169140    2.625796    0.557332
 H   -7.799232    2.130574   -0.367239
 H   -7.139624    2.775455   -1.800112
 H   -6.814404    0.271654    0.780994
 H   -5.113343   -1.534081    0.733318
 H   -3.453944    0.079712   -2.826465
 H   -5.153178    1.895516   -2.813072
 H   -2.568196   -1.847893    2.278634
 H   -2.856269   -3.299485    1.281460
 H   -0.091297   -2.302258    2.083378
 H   -0.256196   -3.645406   -0.035562
 H   -0.996260   -4.955876    0.874180
 H    0.671087   -4.479883    1.220970
 H   -1.762233   -4.570323    3.261338
 H   -1.359332   -3.056107    4.075224
 H   -0.086332   -4.210743    3.680163
 H   -2.168150    0.259386   -0.178233
 H   -1.384045   -0.108198    1.365520
 H    0.494948   -1.185961   -0.107199
 H   -0.815508   -0.863457   -2.077632
 H    0.791921    0.890650    1.229975
 H    2.111243    0.679528   -1.384784
 H    5.405700    1.795012    0.988561
 H    5.567694   -1.217848    0.552203
 H    5.417745   -0.341706    2.108277
 H    8.676978    0.825479    0.282511
 H    7.609092   -1.345504   -2.723245
 H    8.551488    0.165180   -2.592432
 H    6.351838    1.117057   -2.823166
 H    5.590869   -0.239423   -1.978737
 H    6.953639    2.134183   -0.765361
 H   -0.230590    2.211620   -1.323949
 H    0.790590    3.054197   -0.143674
 H   -0.066579    2.766945    2.386001
 H   -2.033404    3.300777    3.760862
 H   -4.262072    3.481952    2.716154
 H   -4.504047    3.146456    0.282939
 H   -2.538390    2.606941   -1.087683
