20 
6djj_ligand_ani.xyz
 C   -7.054143  -12.143804   34.358065
 C   -5.956823  -14.369172   34.021294
 C   -6.029044  -15.740429   33.759043
 C   -7.282917  -16.365173   33.749416
 C   -8.423706  -15.639471   34.047665
 C   -8.348612  -14.287274   34.373595
 C   -9.605419  -13.619447   34.829932
 C   -7.111440  -13.637495   34.287479
 N   -4.880525  -16.457608   33.435724
 O   -9.439134  -12.930085   35.969531
 O  -10.671556  -13.746094   34.278679
 O   -5.833500  -11.678345   34.688968
 O   -7.989054  -11.415390   34.126539
 H   -4.997013  -13.861293   33.996923
 H   -7.351450  -17.423570   33.509951
 H   -9.396826  -16.119146   34.046916
 H   -4.015796  -16.072042   33.788979
 H   -4.938427  -17.452170   33.598902
 H  -10.294066  -12.511940   36.162066
 H   -5.912546  -10.710053   34.693334
