20 
6djj_ligand_xtb.xyz
 C    0.819258    1.758507    0.001908
 C   -1.434735    0.815333    0.058455
 C   -2.374916   -0.214091    0.104899
 C   -1.908618   -1.532314    0.050711
 C   -0.560294   -1.786460   -0.012911
 C    0.395899   -0.765789   -0.001639
 C    1.816659   -1.253815   -0.085471
 C   -0.065983    0.558711    0.013515
 N   -3.712634    0.061372    0.124793
 O    2.785225   -0.548246    0.480737
 O    2.054229   -2.308022   -0.620294
 O    0.437529    2.756385   -0.799336
 O    1.803700    1.879120    0.691581
 H   -1.789620    1.837255    0.107088
 H   -2.617631   -2.346346    0.060755
 H   -0.200265   -2.802392   -0.067018
 H   -4.006637    0.984133    0.395336
 H   -4.341107   -0.688486    0.356231
 H    2.514477    0.339945    0.805858
 H   -0.339864    2.531896   -1.330117
