61 
6do4_ligand_ani.xyz
 N   -1.330292    2.541487    0.623116
 C   -2.584357    2.113888   -0.040474
 C   -2.269127    1.772658   -1.498189
 O   -1.482555    2.477124   -2.129115
 N   -2.878612    0.709374   -2.070659
 C   -3.802554   -0.205993   -1.407541
 C   -3.154114   -1.097275   -0.340864
 O   -3.795680   -1.488367    0.622079
 C   -4.359384   -1.046771   -2.574013
 C   -3.255216   -0.996407   -3.635114
 C   -2.689289    0.415918   -3.494948
 N   -1.869249   -1.478427   -0.575683
 C   -1.106658   -2.188846    0.418257
 C   -0.443912   -1.216004    1.410705
 O   -0.635268   -0.005890    1.404298
 C   -0.048199   -3.012341   -0.326503
 O    0.794681   -2.167825   -1.069992
 N    0.406892   -1.784389    2.304702
 C    1.397028   -0.956249    2.949932
 C    2.497913   -0.532300    1.955422
 O    2.625319   -1.027065    0.832926
 C    2.002967   -1.729189    4.113737
 O    2.512018   -2.936813    3.570668
 N    3.360225    0.402945    2.408324
 C    4.509800    0.833698    1.627385
 C    4.159860    1.850287    0.536586
 O    4.342086    3.047086    0.675832
 N    3.665748    1.301740   -0.611380
 C    3.211804    2.148891   -1.679955
 C    1.735110    2.487397   -1.570126
 O    1.185228    2.775502   -2.737300
 O    1.134815    2.497762   -0.512860
 H   -0.624955    2.771915   -0.100944
 H   -0.956216    1.739000    1.153201
 H   -1.467784    3.341437    1.250468
 H   -3.309391    2.928941   -0.023298
 H   -3.008102    1.265999    0.496858
 H   -4.609163    0.328347   -0.894338
 H   -5.270867   -0.572353   -2.952004
 H   -4.617599   -2.061090   -2.256722
 H   -2.480078   -1.736643   -3.407498
 H   -3.627595   -1.200846   -4.641755
 H   -3.236973    1.144416   -4.107262
 H   -1.628797    0.502163   -3.750003
 H   -1.323752   -0.971010   -1.259135
 H   -1.791428   -2.841983    0.969382
 H   -0.564475   -3.667985   -1.034496
 H    0.528234   -3.659345    0.353639
 H    1.425954   -1.762853   -0.447337
 H    0.694996   -2.743663    2.175723
 H    0.898948   -0.056486    3.320138
 H    1.220120   -1.921220    4.860416
 H    2.796810   -1.134863    4.587310
 H    3.069092   -3.362842    4.232476
 H    3.151528    0.903268    3.258488
 H    4.966007   -0.051044    1.175651
 H    5.231208    1.300463    2.299065
 H    3.311365    0.354059   -0.548446
 H    3.770770    3.087897   -1.615826
 H    3.399522    1.694586   -2.656065
 H    0.215789    2.876032   -2.581835
