61 
6do4_ligand_xtb.xyz
 N   -1.032906    1.067392    2.351428
 C   -2.501432    1.021456    2.261160
 C   -2.891901    1.499195    0.854573
 O   -2.415210    2.554604    0.451807
 N   -3.715143    0.749997    0.131569
 C   -4.201995   -0.577905    0.460997
 C   -3.073075   -1.624472    0.558292
 O   -3.175182   -2.605290    1.257572
 C   -5.136859   -0.932423   -0.708174
 C   -4.585793   -0.117415   -1.876393
 C   -4.134857    1.172751   -1.203504
 N   -1.996740   -1.358025   -0.204651
 C   -0.904043   -2.281182   -0.406241
 C    0.267691   -1.919984    0.508154
 O    0.194820   -1.038582    1.359863
 C   -0.495951   -2.153032   -1.894751
 O   -0.165126   -0.826242   -2.191949
 N    1.383361   -2.632816    0.339566
 C    2.646469   -2.138289    0.839518
 C    3.038867   -0.906658   -0.007901
 O    2.396885   -0.585969   -0.996192
 C    3.686717   -3.256878    0.711276
 O    3.677980   -3.675663   -0.633023
 N    4.117536   -0.247720    0.418858
 C    4.690682    0.870389   -0.308003
 C    3.889171    2.173806   -0.116731
 O    4.214748    3.030221    0.669547
 N    2.831025    2.265550   -0.948112
 C    1.961611    3.413329   -0.947590
 C    0.639646    3.137005   -0.260819
 O   -0.363966    3.780390   -0.793006
 O    0.535332    2.380980    0.686746
 H   -0.616897    1.823675    1.730077
 H   -0.604028    0.178074    1.963882
 H   -0.699428    1.198868    3.305627
 H   -2.942682    1.731785    2.966447
 H   -2.857704    0.019711    2.491956
 H   -4.751005   -0.590751    1.407165
 H   -6.152456   -0.614611   -0.473681
 H   -5.149610   -2.002927   -0.901402
 H   -3.741683   -0.626118   -2.342315
 H   -5.337898    0.063646   -2.639475
 H   -4.960984    1.883302   -1.108450
 H   -3.310093    1.672349   -1.714278
 H   -1.945824   -0.534798   -0.789657
 H   -1.247684   -3.293559   -0.166951
 H   -1.360275   -2.408296   -2.515019
 H    0.317302   -2.842863   -2.142049
 H    0.739078   -0.650076   -1.877933
 H    1.475158   -3.287027   -0.425725
 H    2.527066   -1.836019    1.884630
 H    3.406026   -4.082542    1.379475
 H    4.675362   -2.884393    1.007062
 H    4.339420   -4.362548   -0.766288
 H    4.533210   -0.483542    1.305617
 H    4.716182    0.618543   -1.371484
 H    5.703088    1.038616    0.057372
 H    2.539395    1.438891   -1.454591
 H    2.475439    4.201500   -0.382067
 H    1.773049    3.764419   -1.964751
 H   -1.223387    3.562284   -0.357905
