38 
6dpt_ligand_xtb.xyz
 C    2.029706    3.713515   -0.111934
 C    0.740370    1.357820   -0.838394
 C   -3.198832    1.090455    2.040164
 C   -4.336151    0.802531    1.297095
 C   -4.264477   -0.034810    0.199470
 C   -3.042593   -0.608258   -0.196322
 C    2.777895   -2.962171   -0.494027
 C    3.500491   -1.900335    1.674221
 C    3.338740   -0.564135    0.028198
 C    2.117497    1.498841   -0.997625
 C    2.761789    2.669936   -0.650736
 C    0.663475    3.578685    0.069858
 C    0.016861    2.410743   -0.294693
 C   -1.918456   -0.274850    0.555090
 C   -1.984131    0.550859    1.664146
 N    3.210533   -1.883289    0.347030
 N    3.790852   -0.707982    2.100631
 N    3.693456    0.136787    1.068454
 N    0.081287    0.171206   -1.212356
 O   -0.520995   -2.154559   -0.641449
 O    0.608022   -0.829886    1.098192
 O   -3.011017   -1.429058   -1.247968
 S    3.053135    0.082118   -1.572823
 S   -0.338577   -0.884932    0.028977
Cl   -5.672799   -0.404732   -0.712788
 H    2.529341    4.625555    0.174586
 H   -3.266984    1.733932    2.901994
 H   -5.290990    1.221476    1.572586
 H    3.196357   -2.837899   -1.493380
 H    3.121946   -3.904040   -0.069762
 H    1.686171   -2.974889   -0.559193
 H    3.496467   -2.787197    2.272631
 H    3.829641    2.744948   -0.778000
 H    0.092155    4.388974    0.496544
 H   -1.049268    2.304261   -0.167779
 H   -1.073090    0.745714    2.207082
 H    0.615657   -0.346016   -1.905072
 H   -2.136824   -1.871329   -1.296903
