38 
6dpt_ligand_ani.xyz
 C   19.300831    7.041736  -29.180720
 C   19.949710    5.914804  -26.710306
 C   19.032043    9.723293  -23.619451
 C   17.746604    9.320288  -23.274268
 C   17.446792    7.965471  -23.225078
 C   18.410778    6.995984  -23.514786
 C   23.329764    8.292850  -27.575259
 C   24.631952    7.506023  -29.599199
 C   23.479733    5.986602  -28.607826
 C   20.901383    5.937860  -27.738349
 C   20.563482    6.498077  -28.971737
 C   18.354867    7.012083  -28.163463
 C   18.677471    6.436733  -26.938702
 C   19.696461    7.422774  -23.846409
 C   20.005779    8.775342  -23.908067
 N   23.808159    7.313151  -28.531412
 N   24.806018    6.394214  -30.261482
 N   24.081347    5.424821  -29.624616
 N   20.265878    5.313733  -25.458773
 O   21.093621    5.298621  -23.114408
 O   22.078097    6.946649  -24.763242
 O   18.141721    5.671973  -23.533187
 S   22.474825    5.128625  -27.449443
 S   20.945629    6.222275  -24.217160
Cl   15.832118    7.444895  -22.811078
 H   19.055993    7.481353  -30.143760
 H   19.274867   10.779891  -23.663853
 H   16.973209   10.047378  -23.045532
 H   23.402447    7.891837  -26.561965
 H   23.947790    9.187962  -27.660985
 H   22.285986    8.555706  -27.781506
 H   25.073738    8.466235  -29.838277
 H   21.290165    6.506606  -29.780419
 H   17.363309    7.424998  -28.323968
 H   17.947274    6.387828  -26.136738
 H   21.015567    9.070640  -24.179386
 H   19.520267    4.747647  -25.062987
 H   17.272325    5.511040  -23.138202
