81 
6drg_ligand_ani.xyz
 C    1.641146    1.057003    2.071719
 C   -5.634046   -1.194972    1.820166
 C   -4.274797    2.933492    1.061571
 C   -3.182083    3.964179    1.355735
 C   -3.648618    5.274082    2.002215
 C   -4.678063    6.097162    1.205765
 C   -4.168913    6.565234   -0.168119
 C   -3.087807    7.647053   -0.060921
 C   -3.585810    8.845699    0.751124
 C   -4.088500    8.411129    2.130491
 C   -5.156431    7.316958    2.012042
 C   -3.592838    2.914502    5.217190
 C   -4.698385   -0.474318    0.830376
 C   -2.091249    2.800216    5.080651
 C   -1.334403    3.728792    4.361181
 C   -0.021910    3.451516    3.995263
 C    0.574924    2.258056    4.399362
 C   -0.111731    1.423049    5.283994
 C   -1.427367    1.696532    5.618006
 C    0.217381    0.477663    2.084970
 C    1.710298    2.160836    1.017613
 C    2.638092   -0.061506    1.762830
 C   -4.303249   -1.434479   -0.300896
 C   -3.689224   -2.735322    0.230921
 C   -4.619759   -3.427265    1.233023
 C   -5.002094   -2.475915    2.371140
 C   -3.382641    0.470605    2.774151
 C   -4.352635    1.716262    4.622841
 C   -4.985523    2.327933    2.279678
 N   -4.166234    1.522295    3.183252
 N   -3.480657    0.054788    1.459153
 O    0.019677   -0.433328    3.035771
 O   -2.604665   -0.087536    3.558849
 O   -0.642466    0.814618    1.299524
 S    2.134850    1.728859    3.735771
 H   -5.918690   -0.524398    2.638745
 H   -6.559615   -1.445147    1.281678
 H   -3.831955    2.131652    0.464381
 H   -5.052505    3.390004    0.433274
 H   -2.414422    3.503011    1.990451
 H   -2.672446    4.197480    0.412424
 H   -4.081429    5.062207    2.992215
 H   -2.761191    5.892420    2.196923
 H   -5.554309    5.452696    1.044521
 H   -5.021636    6.978849   -0.725649
 H   -3.805378    5.712041   -0.754266
 H   -2.191249    7.227560    0.417087
 H   -2.777802    7.968836   -1.062578
 H   -2.795328    9.599927    0.849803
 H   -4.411253    9.326604    0.205864
 H   -3.243927    8.041219    2.728653
 H   -4.493875    9.271712    2.676458
 H   -6.037278    7.741349    1.508881
 H   -5.489248    6.993886    3.006841
 H   -3.943358    3.840997    4.744618
 H   -3.872902    2.985482    6.277631
 H   -5.242682    0.368963    0.387802
 H   -1.785056    4.662674    4.035992
 H    0.527510    4.153887    3.374222
 H    0.354380    0.507388    5.634502
 H   -1.961021    0.997327    6.256212
 H    2.714020    2.592872    0.979787
 H    1.458402    1.741660    0.040096
 H    0.989593    2.952451    1.239425
 H    3.652354    0.345342    1.763487
 H    2.583546   -0.852056    2.514862
 H    2.429542   -0.496612    0.778244
 H   -5.204577   -1.676657   -0.880872
 H   -3.612669   -0.926116   -0.986101
 H   -3.453673   -3.405366   -0.603504
 H   -2.731488   -2.508523    0.724622
 H   -5.532442   -3.750433    0.711057
 H   -4.146690   -4.333343    1.630587
 H   -4.105341   -2.214791    2.950106
 H   -5.697642   -2.965157    3.062443
 H   -5.425000    1.837203    4.821128
 H   -4.026260    0.794841    5.108217
 H   -5.399582    3.136919    2.892039
 H   -5.855858    1.751141    1.937760
 H   -2.610787   -0.348472    1.135538
 H   -0.964051   -0.484398    3.183990
