45 
6dtx_ligand_xtb.xyz
 N    5.575427    1.606632   -2.339074
 C    4.629591    1.680440   -1.695612
 C   -3.870661   -0.240038   -0.303394
 C   -4.757339    0.452900   -1.110925
 C   -4.364345    1.504845   -1.912800
 C   -3.031446    1.876598   -1.892692
 C   -2.119857    1.211140   -1.090473
 C   -2.533007    0.129896   -0.287733
 C   -0.073709    1.808566   -0.064963
 C   -1.926849   -1.586487    1.259036
 C   -0.666834   -2.027762    2.005757
 C    0.265091   -3.643909    0.467677
 C    2.321640   -3.116321   -0.829621
 C    2.327990   -1.832640   -0.154531
 C    1.376064   -1.537297    0.746012
 C    1.336019    1.826778   -0.242658
 C    1.643430    2.318624    2.097222
 C    0.293585    2.309658    2.244052
 C   -0.595520    2.067399    1.176453
 C    2.145452    1.629746   -1.348052
 C    3.443029    2.060045    0.455638
 C    3.471997    1.780351   -0.906830
 F   -6.047715    0.072585   -1.104124
 F   -0.231602    2.530286    3.464225
 N    0.380048   -2.403023    1.079918
 N    1.253561   -3.927887   -0.432854
 N    2.156344    2.090062    0.852480
 O   -0.794190    1.577506   -1.183588
 O   -1.572253   -0.475326    0.458070
 O   -0.637821   -4.405372    0.725602
 O    3.113473   -3.510710   -1.650092
 H   -4.241322   -1.061597    0.286385
 H   -5.082381    2.015890   -2.531678
 H   -2.675868    2.689184   -2.505300
 H   -2.698456   -1.309685    1.987703
 H   -2.290957   -2.411610    0.636066
 H   -0.915996   -2.897784    2.618133
 H   -0.302825   -1.215512    2.636256
 H    3.113870   -1.141367   -0.402322
 H    1.352155   -0.591220    1.266350
 H    2.326812    2.505169    2.908395
 H   -1.656152    2.099303    1.359388
 H    1.819531    1.408352   -2.342967
 H    4.256633    2.237141    1.130218
 H    1.191567   -4.836572   -0.880139
