62 
6dvm_ligand_dft.xyz
 C   37.764988  -54.523470  -18.874537
 C   38.745902  -54.624158  -17.760321
 C   38.659885  -55.725865  -16.909424
 C   39.564100  -55.868556  -15.864630
 C   40.557213  -54.910908  -15.650603
 C   41.567346  -55.076388  -14.535312
 C   42.500098  -60.369526   -8.097935
 C   42.614099  -59.708363   -9.448486
 C   41.923081  -60.203134  -10.555280
 C   41.990706  -59.595463  -11.804114
 C   42.774268  -58.450003  -11.966220
 C   42.287720  -58.016017  -14.386260
 C   42.694555  -57.039868  -15.489384
 C   39.730287  -53.655294  -17.544358
 C   40.629694  -53.802293  -16.497213
 C   43.839670  -54.906822  -15.569006
 C   44.062097  -53.537318  -15.020971
 C   44.442006  -52.523005  -15.901983
 C   44.710229  -51.241368  -15.454258
 C   44.636246  -50.922525  -14.080574
 C   45.370359  -48.640720  -14.548847
 C   44.916310  -49.383721  -12.204838
 C   44.298624  -51.964104  -13.189131
 C   44.012783  -53.235206  -13.658260
 C   43.476604  -57.942957  -10.869767
 C   43.395786  -58.566829   -9.632546
 N   42.902329  -57.768121  -13.191755
 N   42.828809  -55.677230  -14.995992
 N   38.146114  -53.753939  -19.945153
 N   44.887690  -49.648029  -13.627593
 O   41.505796  -58.925867  -14.603111
 O   36.660882  -55.056538  -18.872299
 O   37.287963  -53.818932  -21.038325
 O   44.553425  -55.351861  -16.453275
 H   37.881957  -56.462630  -17.079462
 H   39.509775  -56.740869  -15.217706
 H   41.780280  -54.107567  -14.086754
 H   41.158215  -55.718434  -13.747952
 H   42.393967  -61.454745   -8.193646
 H   43.381061  -60.170206   -7.479821
 H   41.623651  -60.001812   -7.550520
 H   41.311479  -61.095511  -10.445097
 H   41.449343  -59.997552  -12.649181
 H   41.948147  -57.122178  -16.285528
 H   43.657420  -57.340609  -15.908980
 H   39.771092  -52.770094  -18.172398
 H   41.390824  -53.044711  -16.326636
 H   44.531012  -52.755039  -16.958873
 H   44.991310  -50.487459  -16.179275
 H   45.518960  -47.703667  -14.010765
 H   46.326310  -48.924141  -15.011996
 H   44.643601  -48.451743  -15.348452
 H   43.952376  -49.620847  -11.738212
 H   45.699646  -49.957560  -11.688521
 H   45.109085  -48.322861  -12.040134
 H   44.266677  -51.786447  -12.121234
 H   43.768633  -54.013977  -12.939617
 H   44.097734  -57.057200  -10.986784
 H   43.954835  -58.156456   -8.795202
 H   43.494886  -56.948053  -13.186674
 H   39.107116  -53.809247  -20.257818
 H   36.583945  -54.411992  -20.699002
