62 
6dvm_ligand_xtb.xyz
 C   -5.848381   -2.612275    0.123996
 C   -4.511114   -2.016336    0.348269
 C   -3.647037   -2.674426    1.218360
 C   -2.384803   -2.168899    1.466228
 C   -1.972020   -0.987923    0.863600
 C   -0.586864   -0.435359    1.089784
 C    8.591358   -1.421007    0.204962
 C    7.105218   -1.451296    0.012164
 C    6.313979   -2.313311    0.762476
 C    4.944232   -2.369336    0.591163
 C    4.332632   -1.548222   -0.351031
 C    1.979718   -2.223953    0.055852
 C    0.592704   -1.880298   -0.511065
 C   -4.102766   -0.825886   -0.249660
 C   -2.844696   -0.319702    0.010563
 C    0.580647    0.499795   -0.906800
 C    0.137662    1.863676   -0.511971
 C   -0.753010    2.565292   -1.315817
 C   -1.140717    3.848564   -0.995629
 C   -0.632283    4.499833    0.139460
 C   -1.845223    6.531211   -0.439622
 C   -0.422747    6.449239    1.587264
 C    0.296143    3.794217    0.921833
 C    0.667522    2.505649    0.602667
 C    5.115597   -0.679498   -1.107288
 C    6.483680   -0.635469   -0.924570
 N    2.955109   -1.549991   -0.591030
 N    0.205633   -0.534186   -0.120594
 N   -6.466090   -2.262640   -1.029421
 N   -1.037930    5.763653    0.477365
 O    2.120517   -2.988853    0.986879
 O   -6.420520   -3.347257    0.915184
 O   -7.681977   -2.895362   -1.304983
 O    1.265614    0.312699   -1.907619
 H   -3.982327   -3.586062    1.688900
 H   -1.717946   -2.691548    2.136372
 H   -0.078780   -0.996061    1.881010
 H   -0.653853    0.613475    1.383761
 H    9.041902   -2.325058   -0.205293
 H    9.031591   -0.562210   -0.295698
 H    8.840769   -1.376907    1.263671
 H    6.779720   -2.955505    1.496195
 H    4.345634   -3.042955    1.181195
 H   -0.140168   -2.588895   -0.123360
 H    0.616589   -1.932843   -1.603297
 H   -4.774462   -0.278013   -0.893362
 H   -2.530236    0.607479   -0.446131
 H   -1.146402    2.094751   -2.205579
 H   -1.841022    4.346739   -1.644821
 H   -1.353656    6.653517   -1.411120
 H   -2.814292    6.050032   -0.596083
 H   -2.026551    7.518994   -0.023438
 H   -0.556599    5.879221    2.509668
 H    0.649521    6.612020    1.427462
 H   -0.898704    7.417415    1.722805
 H    0.745843    4.253527    1.785943
 H    1.397609    1.997468    1.217633
 H    4.641796   -0.038525   -1.837424
 H    7.076805    0.044116   -1.519916
 H    2.643754   -0.908342   -1.320625
 H   -6.016487   -1.925636   -1.864062
 H   -7.842762   -3.413561   -0.485460
