62 
6dvn_ligand_ani.xyz
 C  -37.270218   -5.819335   28.649785
 C  -35.244337   -7.039981   28.078099
 C  -33.235238   -8.314203   27.521389
 C  -33.513389   -5.947432   26.745323
 C  -36.027960   -5.867924   28.036276
 C  -37.784281   -6.923677   29.330504
 C  -39.101304   -6.930035   30.045549
 C  -44.432076   -9.539707   25.754870
 C  -43.360037   -8.694968   26.346981
 C  -42.271524   -9.237433   27.033549
 C  -41.302226   -8.404565   27.574369
 C  -41.402354   -7.016466   27.436681
 C  -40.359382   -6.096471   28.041370
 C  -35.760923   -8.143431   28.788565
 C  -36.995474   -8.072108   29.410742
 C  -41.389444   -6.250072   30.297606
 C  -41.296830   -5.481185   31.615559
 C  -40.135816   -3.721044   32.861144
 C  -38.693349   -3.854602   33.312507
 C  -38.020457   -5.078980   33.257166
 C  -36.703008   -5.173950   33.697571
 C  -36.041005   -4.055203   34.195112
 C  -36.704240   -2.834726   34.252719
 C  -38.021475   -2.740531   33.813533
 C  -42.478480   -6.485362   26.723231
 C  -43.448686   -7.314867   26.176785
 N  -44.522620  -10.823226   26.230460
 N  -40.171598   -6.258141   29.485863
 N  -34.017552   -7.101344   27.454012
 N  -40.412935   -4.450021   31.643687
 O  -45.194592   -9.159289   24.873091
 O  -45.650747  -11.521437   25.810463
 O  -39.228490   -7.517269   31.114185
 O  -42.018355   -5.771839   32.555637
 H  -37.839733   -4.894133   28.590716
 H  -32.980261   -8.575513   28.557592
 H  -33.771950   -9.165930   27.081975
 H  -32.302693   -8.178360   26.966396
 H  -34.180051   -5.655091   25.922593
 H  -33.400769   -5.080810   27.411062
 H  -32.532380   -6.179239   26.321023
 H  -35.678351   -4.992006   27.505848
 H  -42.167098  -10.315786   27.121041
 H  -40.461744   -8.849858   28.103687
 H  -39.401489   -6.272705   27.549627
 H  -40.651526   -5.057578   27.841460
 H  -35.191072   -9.062761   28.863635
 H  -37.371156   -8.925972   29.969017
 H  -42.182306   -5.792014   29.695917
 H  -41.715998   -7.265770   30.544959
 H  -40.376344   -2.660451   32.713044
 H  -40.832880   -4.115336   33.609025
 H  -38.516963   -5.967977   32.868104
 H  -36.191851   -6.132364   33.648486
 H  -35.012055   -4.135850   34.536624
 H  -36.196909   -1.953756   34.638931
 H  -38.540347   -1.784403   33.858323
 H  -42.557591   -5.407348   26.594956
 H  -44.285489   -6.912786   25.613822
 H  -44.380617  -10.978763   27.221370
 H  -39.825991   -4.290463   30.841090
 H  -46.035985  -10.906153   25.151295
