56 
6dxg_ligand_ani.xyz
 C   -1.579944   31.530466  -14.854844
 C   -2.405944   32.437149  -14.207277
 C   -3.608287   32.027363  -13.599259
 C   -4.025112   30.701797  -13.660547
 C   -3.211960   29.775824  -14.314729
 C   -2.322273   28.044505  -15.159817
 C    1.146660   24.857646  -14.729295
 C   -0.239876   24.471071  -14.240890
 C   -1.666368   22.345744  -16.614300
 C   -1.619742   21.019080  -17.306441
 C   -2.630919   23.358017  -16.743309
 C   -2.202332   24.369552  -15.908283
 C   -2.839614   25.701610  -15.740138
 C   -2.010797   30.207742  -14.903152
 C   -0.381546   29.087684  -16.453650
 C    1.012250   28.921319  -15.821950
 C    2.091767   29.009460  -16.877705
 C    2.346693   27.919779  -17.711656
 C    3.304563   28.005115  -18.716816
 C    4.013908   29.188816  -18.901533
 C    3.760782   30.280838  -18.075699
 C    2.805265   30.191288  -17.068088
 C   -4.423477   33.084999  -12.916759
 N   -1.057382   23.921623  -15.314657
 N   -0.724070   22.694902  -15.747214
 N   -1.961571   26.747210  -15.508883
 N   -3.379290   28.410119  -14.497249
 N   -1.440516   29.069317  -15.454847
 N   -5.282514   32.641344  -11.942704
 O   -4.036080   25.839369  -15.859416
 O    1.220294   29.917258  -14.841599
 O   -4.341390   34.262307  -13.218143
 H   -0.632346   31.839960  -15.287620
 H   -2.145707   33.488830  -14.154070
 H   -4.978107   30.387003  -13.244291
 H    1.731350   25.268177  -13.900690
 H    1.661765   23.977485  -15.123402
 H    1.104800   25.606083  -15.527514
 H   -0.156219   23.685395  -13.485843
 H   -0.760795   25.310410  -13.778401
 H   -0.728290   20.468381  -16.997792
 H   -2.506206   20.420747  -17.067050
 H   -1.599716   21.145016  -18.394903
 H   -3.518115   23.364071  -17.363155
 H   -0.417819   30.057923  -16.956608
 H   -0.556745   28.318253  -17.211107
 H    1.064002   27.922904  -15.354910
 H    1.788247   26.993351  -17.578490
 H    3.496102   27.149321  -19.359370
 H    4.762082   29.260203  -19.687270
 H    4.312782   31.207793  -18.214655
 H    2.608928   31.035139  -16.413191
 H   -0.974620   26.561456  -15.591523
 H   -5.721251   33.372171  -11.401228
 H   -5.088586   31.778830  -11.457782
 H    0.556285   29.776784  -14.151289
