31 
6dy7_ligand_xtb.xyz
 N  -10.644510   25.083290   -1.967637
Cl   -6.682698   25.034666    5.878038
 C   -7.582758   25.467707    4.470850
 C   -6.918333   25.988285    3.369947
 C   -7.644572   26.328905    2.246301
Cl   -6.838218   26.970093    0.865895
 C   -9.037839   26.165199    2.193364
 O   -9.637678   26.562876    1.046820
 C  -10.996144   26.251260    0.811497
 C  -11.202915   24.775720    0.458555
 C  -10.345818   24.360667   -0.749791
 C  -11.917626   25.045482   -2.487448
 N  -12.666127   23.911167   -2.558796
 C  -13.828460   24.252015   -3.218201
 C  -13.716199   25.575239   -3.501881
 N  -12.528137   26.063134   -3.038632
 C   -9.673357   25.637800    3.312885
 C   -8.954342   25.292835    4.444918
 H  -10.292467   26.031358   -1.973907
 H   -5.849403   26.124632    3.384040
 H  -11.278396   26.878708   -0.038417
 H  -11.621011   26.536430    1.665594
 H  -12.260287   24.626131    0.232776
 H  -10.933894   24.144855    1.307668
 H  -10.479023   23.290132   -0.933606
 H   -9.291861   24.532797   -0.522805
 H  -12.409514   22.991271   -2.245766
 H  -14.601982   23.537581   -3.407437
 H  -14.408358   26.219532   -4.004798
 H  -10.742101   25.496747    3.319879
 H   -9.464970   24.888487    5.304094
