51 
6e22_ligand_ani.xyz
 N   20.698525  -17.878656   16.441237
 N   22.304395  -16.101077   24.002224
 C   22.810488  -18.088959   15.156262
 C   21.331190  -18.407985   15.243698
 C   20.611377  -18.636916   17.575583
 C   19.993070  -17.966904   18.762574
 C   19.168234  -16.846992   18.659726
 C   18.882775  -16.863650   21.029900
 C   21.872814  -17.127271   23.366953
 C   23.967968  -16.949313   22.494350
 C   23.700271  -18.764527   15.989129
 C   25.529079  -17.504917   15.026945
 C   24.295190  -15.177856   12.548967
 C   19.707687  -17.976274   21.179639
 C   19.993990  -18.539155   22.560429
 C   23.730228  -16.014614   23.702371
 C   20.239436  -18.525903   20.016261
 C   25.064235  -18.474535   15.907923
 C   25.585719  -20.110620   17.531337
 C   24.630522  -16.823147   14.214544
 C   23.265369  -17.112250   14.272698
 C   18.603101  -16.290753   19.800202
 F   18.311645  -16.328937   22.132472
 N   20.585062  -17.597592   23.492866
 N   22.794734  -17.826378   22.578996
 O   25.175268  -15.891619   13.388477
 O   21.006656  -19.794006   17.624406
 O   26.014187  -19.091381   16.657030
 H   20.682850  -16.874665   16.543137
 H   20.802635  -18.013380   14.369516
 H   21.176953  -19.490030   15.271219
 H   18.926080  -16.424080   17.687763
 H   24.900948  -17.516705   22.573785
 H   23.984306  -16.386305   21.549683
 H   23.316931  -19.504202   16.685754
 H   26.588661  -17.280767   14.973742
 H   24.917334  -14.489707   11.974906
 H   23.764596  -15.848583   11.861095
 H   23.561440  -14.605508   13.130939
 H   19.061109  -18.883982   23.016995
 H   20.642774  -19.418333   22.479357
 H   24.310683  -16.347334   24.574685
 H   24.023498  -14.981214   23.489264
 H   20.851883  -19.423010   20.051486
 H   26.483940  -20.490443   18.020245
 H   24.894862  -19.719761   18.289587
 H   25.092595  -20.925860   16.985589
 H   22.556418  -16.591432   13.638696
 H   17.953995  -15.421696   19.753666
 H   22.445463  -18.197039   21.704869
 H   19.957832  -16.885776   23.841820
