51 
6e22_ligand_dft.xyz
 N   20.386252  -17.906969   16.547313
 N   22.991985  -15.706883   21.590728
 C   22.681647  -18.248628   15.749759
 C   21.206359  -18.453528   15.469663
 C   20.142889  -18.653360   17.668273
 C   19.659012  -17.876670   18.854605
 C   18.890322  -16.716131   18.764131
 C   19.064394  -16.440825   21.128592
 C   22.561326  -16.861987   21.940316
 C   23.845052  -17.422528   20.161123
 C   23.314484  -19.080015   16.674390
 C   25.332696  -17.761497   16.442121
 C   24.864430  -15.084015   14.049638
 C   19.823083  -17.601165   21.264773
 C   20.471789  -17.944680   22.588932
 C   24.062320  -15.966436   20.623476
 C   20.085907  -18.320673   20.105801
 C   24.642600  -18.823768   17.021446
 C   24.679117  -20.622765   18.565699
 C   24.696913  -16.948725   15.508788
 C   23.361626  -17.185725   15.159404
 C   18.572561  -15.998525   19.912531
 F   18.808616  -15.717307   22.232110
 N   21.588749  -17.054243   22.913303
 N   23.172839  -17.964119   21.343509
 O   25.453090  -15.945407   14.996881
 O   20.350474  -19.857570   17.728084
 O   25.342459  -19.552850   17.927914
 H   20.477362  -16.910890   16.692681
 H   20.914514  -17.965874   14.534774
 H   20.963258  -19.514569   15.393389
 H   18.518674  -16.375727   17.801894
 H   24.772498  -17.955467   19.940469
 H   23.194019  -17.467290   19.274260
 H   22.751006  -19.891566   17.117672
 H   26.364065  -17.569593   16.714208
 H   25.638373  -14.366455   13.774930
 H   24.542740  -15.629134   13.152916
 H   24.006764  -14.544631   14.472295
 H   19.755499  -17.873428   23.410398
 H   20.824877  -18.981123   22.570641
 H   25.041023  -15.856869   21.110973
 H   24.021384  -15.254213   19.794834
 H   20.657144  -19.243849   20.149498
 H   25.400822  -21.049721   19.262679
 H   23.798585  -20.274867   19.121531
 H   24.367295  -21.389483   17.846080
 H   22.848205  -16.557183   14.439853
 H   17.970516  -15.097766   19.874914
 H   22.622854  -18.801662   21.219787
 H   21.266534  -16.143647   23.221017
