61 
6e3g_ligand_ani.xyz
 N    7.840693   61.917209   -6.452044
 N    4.257178   57.389894   -6.877603
 C    4.877211   51.147029   -4.054997
 C    3.291992   55.230507   -7.307192
 C    5.501134   55.332479   -6.358964
 C    7.419876   50.351165   -3.246332
 C    3.337048   53.848001   -7.282929
 C    6.690865   61.919543   -4.333690
 C    4.374066   55.989231   -6.847578
 C    7.129068   50.513049   -4.599518
 C    7.747042   62.282152   -5.183882
 C    6.891247   60.725470   -8.379314
 C    5.508361   60.892914   -9.004346
 C    4.784342   59.789350   -6.830619
 C    9.313852   49.861540   -5.241732
 C    5.594236   51.097763   -6.502268
 C    5.154940   50.986575   -2.697633
 C    6.424296   50.593178   -2.299714
 C    5.695329   61.126033   -4.860790
 C    5.545793   53.942000   -6.331187
 C    5.771153   60.724245   -6.198125
 C    5.854806   50.929688   -5.017660
 C    4.467904   53.189677   -6.793856
 C    6.855356   61.153953   -6.946069
 C    5.266647   58.304678   -6.767127
 C    3.274600   59.856719   -8.733268
 C    2.959876   60.313643  -10.140278
 C    9.784119   63.422799   -5.495543
 N    4.501959   60.165106   -8.229931
 O    6.446498   58.019540   -6.652784
 O    2.451081   59.219819   -8.074695
 O    8.021655   50.292742   -5.604498
 O    4.411261   51.825425   -6.794472
 O    8.709746   63.053074   -4.643105
 H    3.351657   57.763984   -7.148164
 H    3.883535   51.446605   -4.375770
 H    2.403631   55.727340   -7.693343
 H    6.350917   55.906786   -6.013245
 H    8.407319   50.038596   -2.922703
 H    2.501450   53.253228   -7.640368
 H    6.689923   62.265081   -3.305045
 H    7.166709   59.665083   -8.423471
 H    7.636682   61.306060   -8.925760
 H    5.524846   60.503726  -10.028148
 H    5.248319   61.960625   -9.057507
 H    3.834377   59.864220   -6.288851
 H    9.865602   49.738802   -6.174772
 H    9.822836   50.603466   -4.612385
 H    9.281642   48.902383   -4.708488
 H    5.436510   50.117158   -6.964932
 H    6.455957   51.547275   -7.009289
 H    4.378622   51.167825   -1.958694
 H    6.653686   50.465500   -1.243655
 H    4.855101   60.813854   -4.241138
 H    6.434805   53.456579   -5.936687
 H    1.898755   60.140420  -10.317783
 H    3.188206   61.372581  -10.292204
 H    3.535755   59.735769  -10.872579
 H   10.441988   64.041748   -4.884094
 H   10.317230   62.538453   -5.858981
 H    9.420709   63.985664   -6.361203
