31 
6e3p_ligand_ani.xyz
 O  -19.054252   16.144375  138.998703
 C  -18.850675   16.192710  137.653252
 O  -18.156565   15.399392  137.072196
 C  -19.582744   17.321829  137.031594
 N  -20.315857   18.139482  137.876467
 C  -19.556109   17.589633  135.704300
 O  -18.876634   16.906265  134.790517
 C  -20.326030   18.724582  135.150612
 O  -20.248596   18.909847  133.928433
 C  -21.088325   19.484946  136.089253
 C  -21.072521   19.182227  137.417628
 C  -21.829833   19.955388  138.430782
 C  -23.114298   20.403667  138.131299
 C  -21.269709   20.270252  139.673680
 C  -21.984711   21.030777  140.591796
 C  -23.269909   21.466208  140.292084
 C  -23.845110   21.140976  139.061775
 C  -25.210783   21.607068  138.787562
 N  -26.022524   21.199590  137.791343
 N  -27.188626   21.854894  137.881514
 N  -27.081115   22.633958  138.895348
 N  -25.874567   22.506255  139.484954
 H  -18.541041   15.380654  139.310739
 H  -20.370113   17.870756  138.849980
 H  -19.096216   17.388333  133.959075
 H  -21.657716   20.332238  135.724643
 H  -23.537975   20.159000  137.159280
 H  -20.258862   19.941010  139.903443
 H  -21.538720   21.277526  141.551572
 H  -23.842657   22.061275  140.997751
 H  -25.905207   20.493883  137.080427
