31 
6e3p_ligand_dft.xyz
 O  -19.032067   16.229588  139.021700
 C  -18.815087   16.244426  137.678780
 O  -18.099352   15.450020  137.126281
 C  -19.565529   17.337496  137.037510
 N  -20.335123   18.146060  137.863910
 C  -19.553210   17.594885  135.696712
 O  -18.863204   16.915764  134.796840
 C  -20.347928   18.708004  135.129136
 O  -20.280381   18.868904  133.903385
 C  -21.094248   19.484456  136.067727
 C  -21.076051   19.179705  137.406958
 C  -21.837626   19.946891  138.420079
 C  -23.143683   20.353712  138.144489
 C  -21.268219   20.268731  139.655192
 C  -21.999241   20.982795  140.599355
 C  -23.297196   21.388092  140.321928
 C  -23.873579   21.076933  139.086517
 C  -25.247854   21.513649  138.825561
 N  -25.895223   21.485722  137.644517
 N  -27.135245   21.976198  137.811454
 N  -27.228330   22.286847  139.056046
 N  -26.081637   22.015268  139.715261
 H  -18.517609   15.485780  139.371769
 H  -20.392679   17.876252  138.836070
 H  -19.094185   17.375551  133.953703
 H  -21.648204   20.343571  135.709876
 H  -23.586352   20.066081  137.194954
 H  -20.240658   19.987196  139.868541
 H  -21.548142   21.234739  141.553417
 H  -23.878177   21.946118  141.048118
 H  -25.591983   21.199569  136.726215
