32 
6e5g_ligand_ani.xyz
 C   23.993513   -5.820247   16.853473
 C   24.696617   -7.038416   17.405646
 O   25.887194   -7.199922   17.149733
 C   23.931725   -7.988688   18.257738
 C   22.647836   -7.652578   18.700616
 C   21.928629   -8.472080   19.558024
 C   22.499564   -9.662055   19.994814
 C   23.761465  -10.037657   19.553457
 C   24.481277   -9.236369   18.659939
 N   25.725969   -9.622312   18.198525
 C   26.297251  -10.895125   18.224116
 C   27.684880  -10.983808   18.388245
 C   28.312685  -12.220769   18.432829
 C   27.574818  -13.393344   18.289002
 C   26.204772  -13.301042   18.085741
 C   25.363885  -14.532078   17.923486
 F   24.719871  -14.532511   16.739545
 F   24.412372  -14.603628   18.876584
 F   26.085747  -15.663480   17.989946
 C   25.560508  -12.067086   18.040764
 H   24.668668   -5.314079   16.161545
 H   23.067609   -6.089175   16.334845
 H   23.733550   -5.131439   17.665595
 H   22.202476   -6.716719   18.374648
 H   20.937420   -8.178038   19.889727
 H   21.959953  -10.311706   20.678711
 H   24.203797  -10.960871   19.918656
 H   26.261423   -8.862039   17.784051
 H   28.263394  -10.067641   18.494385
 H   29.387601  -12.270445   18.577464
 H   28.055190  -14.366302   18.325422
 H   24.494340  -12.021349   17.841728
