53 
6e5l_ligand_ani.xyz
 C  -12.084268   -6.593628   18.709029
 C  -12.706942   -7.870203   19.216218
 C  -13.994173   -8.226034   18.472153
 C  -13.787662   -8.168862   16.957982
 C  -13.453946   -6.697599   16.570400
 C  -12.451303   -6.087934   17.529250
 C  -11.019315   -5.979878   19.580639
 C  -13.022374   -6.554214   15.110174
 C  -14.951871   -8.752759   16.163541
 C  -14.636429   -9.317993   14.791811
 C  -16.203753   -8.774487   16.627282
 C  -13.819779   -5.920776   14.139846
 C  -13.467642   -5.981025   12.792860
 C  -12.302776   -6.635688   12.390381
 C  -11.469890   -7.214896   13.336143
 C  -11.822275   -7.145247   14.683837
 O  -10.949369   -7.710437   15.564166
 O  -12.021320   -6.672961   11.060808
 C  -15.056470   -5.129414   14.530501
 C  -14.752332   -3.809709   15.260590
 C  -13.803063   -2.887296   14.491078
 C  -13.635917   -1.502841   15.122838
 C  -13.028074   -1.535195   16.524665
 H  -12.896493   -7.784681   20.293848
 H  -11.972870   -8.685033   19.109294
 H  -14.783762   -7.518014   18.757586
 H  -14.339203   -9.222222   18.770737
 H  -12.907790   -8.780852   16.712963
 H  -14.381602   -6.128311   16.697464
 H  -12.028320   -5.141874   17.188072
 H  -11.413443   -5.763441   20.580588
 H  -10.172521   -6.665765   19.710436
 H  -10.633816   -5.044457   19.161714
 H  -13.644405   -9.784319   14.768876
 H  -15.377460  -10.071279   14.504245
 H  -14.641038   -8.541280   14.017515
 H  -16.470543   -8.408939   17.615002
 H  -17.014388   -9.200343   16.039106
 H  -14.097863   -5.527075   12.032867
 H  -10.544374   -7.715627   13.058591
 H  -11.159290   -7.381791   16.455694
 H  -11.190616   -7.148978   10.935509
 H  -15.608583   -4.903338   13.611885
 H  -15.726604   -5.748079   15.142132
 H  -14.323678   -4.025669   16.247199
 H  -15.700061   -3.286002   15.446899
 H  -14.170084   -2.770085   13.461673
 H  -12.819015   -3.372297   14.413679
 H  -12.999788   -0.893225   14.468774
 H  -14.611274   -0.996782   15.158771
 H  -12.847017   -0.523582   16.902343
 H  -13.687689   -2.040003   17.238703
 H  -12.069464   -2.068582   16.523642
