34 
6e6w_ligand_ani.xyz
 O  -17.243177   16.189146  134.915746
 C  -18.289523   16.492662  135.427399
 O  -18.493487   16.432519  136.772402
 C  -19.499163   16.967521  134.713211
 N  -20.606290   17.274564  135.484849
 C  -19.557091   17.128868  133.368555
 O  -18.554746   16.900746  132.523393
 C  -20.796187   17.603729  132.720383
 O  -20.769447   17.751150  131.490680
 C  -21.905547   17.835224  133.589710
 C  -21.807618   17.640699  134.938335
 C  -22.912468   17.867563  135.897518
 C  -24.179285   17.281378  135.714992
 C  -24.489304   16.319874  134.592894
 C  -25.183388   17.581345  136.629511
 C  -22.690394   18.696921  137.005817
 C  -23.701774   18.992110  137.897396
 C  -24.968216   18.434697  137.710321
 C  -26.020686   18.767053  138.675617
 N  -27.320139   18.408624  138.627791
 N  -27.952988   18.913010  139.696010
 N  -27.065171   19.552213  140.366350
 N  -25.858690   19.486909  139.767492
 H  -17.655604   16.114371  137.147513
 H  -18.947107   17.134212  131.651275
 H  -22.835742   18.175765  133.152061
 H  -23.658540   15.631474  134.412376
 H  -25.381047   15.730564  134.824587
 H  -24.686350   16.846297  133.652709
 H  -26.156023   17.114088  136.483101
 H  -21.702193   19.130433  137.139788
 H  -23.528490   19.641456  138.750342
 H  -27.842309   17.877457  137.947932
 H  -20.535816   17.114362  136.481943
