44 
6e9l_ligand_dft.xyz
 N    8.151516    0.977706   -0.393414
 C   -3.343234    2.191547    1.100446
 C   -4.710600    2.217897    0.865649
 C   -5.322337    1.140853    0.231888
 C   -4.554703    0.045531   -0.180231
 C   -6.413202   -0.771507   -1.332956
 C    1.337408   -0.962568    0.241349
 C    4.030528   -0.201575   -0.008791
 C    1.883155   -0.694995   -1.015645
 C    5.844739    1.198105   -1.040776
 C    6.454534   -0.388606    0.628276
 O   -0.427708   -2.029857    1.429750
 C   -0.091681   -1.377225    0.453722
 C    3.214747   -0.318503   -1.138252
 C    5.450655    0.204747   -0.140978
 C    7.770344    0.029227    0.464929
 C    7.189086    1.541687   -1.126196
 C    3.480943   -0.485510    1.246618
 C    2.153389   -0.868055    1.369263
 N   -0.972896   -0.972959   -0.509119
 C   -2.395815   -1.206412   -0.389105
 C   -3.177998    0.011909    0.060279
 O   -5.117082   -1.027735   -0.820347
 C   -7.250325   -0.060928   -0.286545
 O   -6.672367    1.194515    0.023316
 C   -2.584623    1.090526    0.709056
 H   -2.866779    3.027925    1.601684
 H   -5.328578    3.055612    1.171318
 H   -6.840836   -1.741556   -1.594941
 H   -6.342289   -0.151119   -2.236442
 H    1.286019   -0.819998   -1.914764
 H    5.111752    1.715942   -1.651754
 H    6.220008   -1.183416    1.329547
 H    3.634813   -0.144698   -2.124670
 H    8.563237   -0.428034    1.053039
 H    7.509624    2.317524   -1.818366
 H    4.095776   -0.385996    2.136475
 H    1.725242   -1.097386    2.339323
 H   -0.674852   -0.263174   -1.160991
 H   -2.518281   -2.019844    0.331121
 H   -2.787645   -1.560716   -1.347403
 H   -7.314778   -0.678207    0.619538
 H   -8.257961    0.142483   -0.655081
 H   -1.517604    1.069163    0.906343
