44 
6e9w_ligand_ani.xyz
 N   -8.255331    0.859730    0.380376
 C    3.580988    2.244312   -1.132732
 C    4.947108    2.161132   -0.896581
 C    5.463505    1.051705   -0.237397
 C    4.607167    0.021555    0.171571
 C    6.488922   -1.268945    0.692763
 C   -1.379893   -0.849437   -0.229614
 C   -4.095008   -0.182783    0.010425
 C   -1.920013   -0.534327    1.018436
 C   -6.521108   -0.525699   -0.549472
 C   -5.946674    1.232043    0.948880
 O    0.413882   -1.882217   -1.400723
 C    0.054873   -1.224133   -0.435720
 C   -3.260472   -0.200628    1.133798
 C   -5.529277    0.176654    0.136805
 C   -7.301309    1.531721    1.028349
 C   -7.850188   -0.152878   -0.389099
 C   -3.549548   -0.518425   -1.232635
 C   -2.210400   -0.851002   -1.350933
 N    0.942928   -0.757434    0.492509
 C    2.353023   -1.057735    0.396749
 C    3.224241    0.105003   -0.050134
 O    5.085740   -1.088403    0.812471
 C    7.190045    0.044659    0.961434
 O    6.813898    0.994780   -0.025243
 C    2.728545    1.222804   -0.714480
 H    3.174136    3.109393   -1.647909
 H    5.634196    2.940610   -1.211270
 H    6.740309   -1.628588   -0.314810
 H    6.762515   -2.027296    1.430210
 H   -1.308416   -0.571955    1.917569
 H   -6.264819   -1.369358   -1.184008
 H   -5.222860    1.829478    1.495929
 H   -3.673489    0.036528    2.111477
 H   -7.637379    2.355870    1.655396
 H   -8.632263   -0.697074   -0.916028
 H   -4.183615   -0.500621   -2.115881
 H   -1.784029   -1.127706   -2.310172
 H    0.627832   -0.152037    1.232458
 H    2.427786   -1.878279   -0.326013
 H    2.710537   -1.439738    1.359509
 H    8.275207   -0.056977    0.889114
 H    6.921909    0.412500    1.961460
 H    1.663950    1.302331   -0.911760
