44 
6ed6_ligand_ani.xyz
 N  -69.470986   -3.951703  -41.805100
 C  -63.340373  -12.357137  -49.417397
 C  -63.855372  -11.586904  -50.453171
 C  -63.793770  -10.199491  -50.380150
 C  -63.202306   -9.587275  -49.269083
 C  -63.368449   -7.524172  -50.364556
 C  -64.572359   -8.230341  -44.674140
 C  -66.496581   -6.542439  -43.528160
 C  -64.527994   -6.854447  -44.904794
 C  -67.933374   -5.792423  -41.607262
 C  -68.117619   -4.629495  -43.675951
 O  -63.389819  -10.290100  -44.750624
 C  -63.574704   -9.188487  -45.247633
 C  -65.485011   -6.023100  -44.343523
 C  -67.522123   -5.649875  -42.933188
 C  -69.078408   -3.825476  -43.074593
 C  -68.891783   -4.924408  -41.098010
 C  -66.516919   -7.918985  -43.281636
 C  -65.565480   -8.752886  -43.845714
 N  -62.891700   -8.746477  -46.345886
 C  -62.009446   -9.656011  -47.053974
 C  -62.667433  -10.356233  -48.228250
 O  -63.146340   -8.222869  -49.147620
 C  -64.569047   -8.114296  -51.071681
 O  -64.308636   -9.467881  -51.415009
 C  -62.752113  -11.741898  -48.312269
 H  -63.395778  -13.440473  -49.471488
 H  -64.317161  -12.035681  -51.327193
 H  -62.479886   -7.591463  -51.006601
 H  -63.544152   -6.479760  -50.094598
 H  -63.734903   -6.418439  -45.508999
 H  -67.495546   -6.555905  -40.970495
 H  -67.853024   -4.477238  -44.718526
 H  -65.442842   -4.952205  -44.527649
 H  -69.553683   -3.030070  -43.646263
 H  -69.216180   -5.022997  -40.063398
 H  -67.300535   -8.336498  -42.653914
 H  -65.567693   -9.820491  -43.649453
 H  -63.300372   -8.018157  -46.915898
 H  -61.671214  -10.397760  -46.328291
 H  -61.135567   -9.086129  -47.391273
 H  -64.775696   -7.596044  -52.011025
 H  -65.451158   -8.053757  -50.419174
 H  -62.355465  -12.345123  -47.498387
