39 
6eda_ligand_xtb.xyz
 C    4.015998   -1.479242   -0.957540
 C    5.655839   -0.031449    0.007879
 C    3.323812    0.361860    0.433004
 C   -4.547064    0.010702    0.047249
 C   -4.234704   -1.341916    0.145372
 C   -2.912288   -1.784302    0.018785
 C   -1.910118   -0.835215   -0.275585
 C   -2.232894    0.508088   -0.373665
 C   -3.542211    0.914757   -0.198213
 O   -2.612037   -3.079919    0.195569
 N   -0.596863   -1.308985   -0.463190
 C    0.528722   -0.586749   -0.091996
 N    1.683158   -1.154486   -0.574630
 O    0.467828    0.389846    0.609364
 C    2.997860   -0.740064   -0.354827
 C    5.338726   -1.130216   -0.778595
 C    4.647437    0.710389    0.611308
 S   -3.910718    2.662595   -0.302299
 O   -5.303729    2.831199   -0.576768
 O   -2.935286    3.281226   -1.148260
 N   -3.624170    3.116160    1.281067
 N   -5.307502   -2.280391    0.402027
 O   -6.287548   -1.839206    0.958292
 O   -5.167129   -3.421333    0.035882
 C    7.083524    0.368853    0.238209
 F    7.459055    0.188826    1.520044
 F    7.955614   -0.322176   -0.508863
 F    7.298849    1.669267   -0.029176
 H    3.770828   -2.334110   -1.571331
 H    2.542273    0.936876    0.898724
 H   -5.568424    0.341123    0.152871
 H   -1.479560    1.247151   -0.588990
 H   -1.663542   -3.193221    0.346620
 H   -0.493391   -2.102901   -1.080148
 H    1.602352   -1.962072   -1.177063
 H    6.120921   -1.706211   -1.247856
 H    4.902229    1.563799    1.220323
 H   -4.432996    3.518138    1.724662
 H   -2.805870    3.693087    1.383048
