39 
6eeo_ligand_dft.xyz
 C   -4.050916    0.821938   -1.000462
 C   -5.410276   -0.388129    0.565327
 C   -3.061405   -0.315639    0.888648
 C   -4.304917   -0.757543    1.327275
 C    3.057502   -0.134984    0.632803
 C    2.837011    1.234809    0.713354
 C    1.879839    1.862739   -0.098643
 C    1.160180    1.059282   -1.017633
 C    1.393488   -0.301205   -1.110789
 C    2.345510   -0.891692   -0.281244
 O    1.600348    3.156149   -0.013232
 N    0.186942    1.746028   -1.800681
 C   -1.199457    1.466022   -1.758356
 N   -1.610962    0.872663   -0.600671
 O   -1.905544    1.794319   -2.690757
 C   -2.922576    0.467807   -0.261237
 C   -5.301594    0.382552   -0.576646
 C   -4.475573   -1.601471    2.560620
 F   -6.627417   -0.803425    0.963663
 S    2.621606   -2.646227   -0.382488
 O    3.411927   -3.018845    0.777970
 O    1.346498   -3.269780   -0.694159
 N    3.557018   -2.801614   -1.760630
 N    3.634820    1.988159    1.684831
 O    4.138175    1.350379    2.598184
 O    3.761083    3.186205    1.510967
 H   -3.950064    1.422379   -1.893215
 H   -2.178377   -0.597347    1.459325
 H    3.775471   -0.596478    1.301105
 H    0.818806   -0.902819   -1.808454
 H    0.865186    3.310288   -0.639979
 H    0.455334    1.979014   -2.750287
 H   -0.899867    0.632232    0.074270
 H   -6.196708    0.640113   -1.131952
 H   -5.119125   -1.102020    3.292048
 H   -4.946718   -2.559370    2.318074
 H   -3.511146   -1.804126    3.033316
 H    4.532222   -2.963639   -1.527937
 H    3.180536   -3.538748   -2.349322
