88 
6efk_ligand_ani.xyz
 C   -4.525521   -1.471699   -0.899652
 O   -3.916783   -2.455740   -0.476661
 C   -4.725949   -1.236691   -2.379998
 N   -5.039712   -0.510557   -0.087931
 C   -4.797353   -0.382926    1.357584
 C   -3.331357    0.013422    1.604839
 O   -3.043536    1.124448    2.048456
 C   -5.281682   -1.606665    2.167189
 C   -6.788893   -1.816225    1.959139
 C   -4.927042   -1.419781    3.644704
 C   -7.320676   -3.100801    2.593816
 N   -2.417176   -0.939313    1.311274
 C   -1.045604   -0.594576    1.024823
 C   -0.940889    0.103358   -0.350500
 O   -1.877283    0.168796   -1.136644
 C   -0.164028   -1.841889    1.145806
 C   -0.286692   -2.846640    0.004414
 C    0.522505   -4.082101    0.307441
 O    1.339484   -4.194025    1.202400
 O    0.257205   -5.090398   -0.524434
 N    0.282125    0.637265   -0.601257
 C    0.536282    1.479356   -1.754642
 C    1.943058    1.139513   -2.275200
 O    2.170741    0.025833   -2.735995
 C    0.263956    2.970873   -1.485002
 C    0.728382    3.496055   -0.114649
 C   -0.061664    2.935325    1.054611
 O    0.445291    2.551041    2.097828
 O   -1.364587    2.911450    0.830363
 N    2.918919    2.085838   -2.194574
 C    4.318673    1.724583   -2.427692
 C    4.888819    1.125196   -1.120742
 O    5.697708    1.725372   -0.423201
 C    5.153662    2.906469   -2.934480
 C    6.570142    2.443474   -3.285470
 C    4.502725    3.574440   -4.148174
 N    4.392791   -0.099247   -0.805473
 C    4.615096   -0.771459    0.460455
 C    3.598606   -1.920527    0.507800
 O    3.551968   -2.534587    1.682891
 C    4.520475    0.150691    1.697079
 C    3.170770    0.804749    1.825899
 O    3.171447    2.044124    2.282486
 O    2.138608    0.211666    1.552985
 O    2.910564   -2.235954   -0.439708
 H   -4.717298   -2.200104   -2.892236
 H   -5.658279   -0.706614   -2.599308
 H   -3.888118   -0.640065   -2.753947
 H   -5.399078    0.315283   -0.541566
 H   -5.369329    0.489366    1.679119
 H   -4.764024   -2.492735    1.781903
 H   -7.330134   -0.949923    2.366987
 H   -7.000198   -1.835502    0.884706
 H   -5.256268   -2.271098    4.248437
 H   -3.846264   -1.317734    3.783216
 H   -5.404127   -0.515272    4.044024
 H   -7.238929   -3.087283    3.686155
 H   -8.377296   -3.249352    2.347928
 H   -6.767958   -3.974019    2.227385
 H   -2.794190   -1.731969    0.795637
 H   -0.714416    0.119624    1.789732
 H    0.874897   -1.534319    1.245820
 H   -0.430568   -2.324746    2.092595
 H   -1.327601   -3.140306   -0.197849
 H    0.106985   -2.432717   -0.934161
 H    0.833831   -5.825520   -0.255762
 H    1.017984    0.486253    0.082730
 H   -0.151121    1.138577   -2.536195
 H    0.709738    3.569291   -2.287423
 H   -0.815174    3.122589   -1.550812
 H    1.784197    3.289606    0.090320
 H    0.602511    4.584674   -0.092125
 H   -1.831801    2.355211    1.499592
 H    2.741344    2.933762   -1.676378
 H    4.289958    0.932705   -3.187928
 H    5.223850    3.636198   -2.116119
 H    7.164244    3.285492   -3.657754
 H    6.542102    1.682133   -4.076173
 H    7.079614    2.021828   -2.415246
 H    3.520821    3.995361   -3.911819
 H    4.376065    2.852509   -4.965576
 H    5.137368    4.385927   -4.520486
 H    3.703731   -0.531988   -1.418135
 H    5.616453   -1.229551    0.470431
 H    2.812824   -3.187917    1.643018
 H    4.667898   -0.460446    2.594924
 H    5.297763    0.909723    1.645961
 H    2.224824    2.331833    2.339574
