39 
6eif_ligand_dft.xyz
 C  -48.544305    3.238738  -24.387270
 C  -49.572820    2.379072  -24.749868
 C  -49.568933    1.810212  -26.020237
 S  -50.913212    0.741649  -26.511096
 O  -51.499076    0.197343  -25.300897
 O  -50.432705   -0.086195  -27.601305
 N  -52.079309    1.729587  -27.173273
 C  -48.544928    2.082337  -26.922757
 C  -47.525795    2.948642  -26.550590
 C  -47.509852    3.540894  -25.281852
 C  -46.413373    4.458228  -24.892073
 C  -45.088904    4.183271  -25.225364
 C  -44.107562    5.091890  -24.831730
 C  -46.700355    5.637715  -24.170189
 N  -45.794662    6.517553  -23.760033
 C  -44.544161    6.217381  -24.094653
 N  -43.436256    6.953251  -23.765836
 C  -42.319986    6.330655  -24.271406
 C  -42.672332    5.183015  -24.934482
 C  -41.762218    4.248788  -25.607046
 C  -42.089925    3.640296  -26.821737
 C  -41.183678    2.769487  -27.411698
 C  -39.966710    2.543302  -26.776088
 N  -39.628102    3.112256  -25.616949
 C  -40.514921    3.930264  -25.054765
 H  -48.525709    3.656693  -23.385284
 H  -50.356582    2.121849  -24.044662
 H  -52.489383    2.369093  -26.501742
 H  -51.779915    2.182848  -28.029425
 H  -48.544830    1.608944  -27.899225
 H  -46.736103    3.180573  -27.259209
 H  -44.830650    3.266618  -25.748740
 H  -47.734494    5.876104  -23.930099
 H  -43.459893    7.817524  -23.249584
 H  -41.339768    6.767217  -24.141418
 H  -43.035643    3.866467  -27.306576
 H  -41.408731    2.282517  -28.354914
 H  -39.229483    1.874625  -27.214624
 H  -40.229737    4.357298  -24.094302
