36 
6ej4_ligand_dft.xyz
 C   19.057134  -26.660218   32.437142
 C   19.906775  -27.657301   31.945123
 N   20.289551  -28.723157   32.757990
 C   20.416004  -27.529822   30.646724
 C   20.074121  -26.430217   29.870757
 C   19.224347  -25.445166   30.361088
 C   18.709485  -25.556174   31.657024
 C   17.804224  -24.512906   32.199001
 C   18.056200  -23.159617   31.989595
 C   17.161600  -22.229251   32.519717
 C   16.659571  -24.878230   32.941252
 N   15.796189  -24.026057   33.483122
 C   16.075312  -22.746074   33.261209
 N   15.349516  -21.681755   33.733328
 C   15.941133  -20.515883   33.311552
 C   17.057862  -20.791196   32.563907
 C   17.950889  -19.808710   31.939938
 C   18.511844  -20.013930   30.676343
 C   19.342967  -19.041824   30.135755
 C   19.578379  -17.882973   30.868884
 N   19.055260  -17.660942   32.076892
 C   18.275534  -18.610475   32.589190
 H   18.688906  -26.732827   33.457968
 H   19.642290  -28.947950   33.500304
 H   20.589280  -29.550798   32.262372
 H   21.084620  -28.291341   30.253257
 H   20.469596  -26.347631   28.862396
 H   18.938191  -24.605995   29.734379
 H   18.946127  -22.846059   31.450882
 H   16.437453  -25.933472   33.085339
 H   14.508150  -21.765017   34.279836
 H   15.505771  -19.557177   33.556097
 H   18.279770  -20.916486   30.117949
 H   19.792119  -19.172237   29.156529
 H   20.216466  -17.096756   30.471489
 H   17.886364  -18.421378   33.588675
