36 
6ej4_ligand_ani.xyz
 C   19.041357  -26.708717   32.434563
 C   19.874731  -27.699573   31.906821
 N   20.219716  -28.816926   32.668950
 C   20.400763  -27.525421   30.621121
 C   20.096346  -26.382372   29.893961
 C   19.274263  -25.397334   30.427299
 C   18.731913  -25.560578   31.704478
 C   17.834916  -24.517603   32.263737
 C   18.091217  -23.166738   32.047276
 C   17.204822  -22.230625   32.569316
 C   16.691341  -24.874274   33.005945
 N   15.820645  -24.016826   33.527913
 C   16.108001  -22.735493   33.303294
 N   15.376592  -21.669930   33.752471
 C   15.970226  -20.508846   33.324793
 C   17.084703  -20.786346   32.582451
 C   17.947409  -19.800317   31.923836
 C   18.594310  -20.052896   30.710241
 C   19.385048  -19.066779   30.143580
 C   19.511202  -17.851143   30.807040
 N   18.904539  -17.582229   31.963986
 C   18.143418  -18.536829   32.492111
 H   18.656191  -26.830335   33.445335
 H   19.552062  -29.060945   33.387173
 H   20.497179  -29.625898   32.131371
 H   21.052546  -28.287725   30.200843
 H   20.513271  -26.255133   28.898325
 H   19.031931  -24.510054   29.848527
 H   18.992801  -22.878308   31.507834
 H   16.467465  -25.929236   33.159634
 H   14.535474  -21.745525   34.299149
 H   15.518856  -19.547183   33.546687
 H   18.461831  -21.008525   30.207596
 H   19.894960  -19.237212   29.200283
 H   20.126112  -17.054159   30.393101
 H   17.670842  -18.288966   33.441960
