38 
6eln_ligand_ani.xyz
 N  -27.931838   13.094117   11.009154
 N  -28.259344   13.111222   12.304911
 C  -27.440259   12.229259   12.865861
 C  -26.545872   11.673182   11.890158
 C  -26.923998   12.257323   10.691433
 C  -27.582077   11.837151   14.284154
 C  -25.406583   10.769520   12.086849
 C  -26.433574   12.126741    9.281313
 C  -24.547808   10.919505   13.177453
 C  -23.473302   10.063168   13.380350
 C  -23.236258    9.028022   12.478717
 C  -24.084752    8.865816   11.379808
 C  -25.146628    9.728340   11.188455
 C  -27.910239   12.759103   15.296872
 C  -28.036804   12.348050   16.620674
 C  -27.854871   11.014154   16.961829
 C  -27.542572   10.078298   15.977334
 C  -27.413343   10.503608   14.666390
 O  -27.996116   10.682427   18.271490
 O  -28.082788   14.059622   14.968300
 O  -22.217868    8.134344   12.581987
 C  -21.343642    8.269937   13.681254
 H  -28.439178   13.694260   10.375733
 H  -26.911463   11.287439    8.761712
 H  -26.646808   13.031262    8.700704
 H  -25.353520   11.956408    9.266487
 H  -24.740936   11.709228   13.900768
 H  -22.834852   10.212315   14.243413
 H  -23.887086    8.052652   10.689135
 H  -25.802517    9.573221   10.334306
 H  -28.281014   13.060246   17.407666
 H  -27.400061    9.031609   16.234366
 H  -27.148686    9.775382   13.904593
 H  -27.846886    9.734155   18.374177
 H  -28.295790   14.551206   15.772087
 H  -21.877169    8.159478   14.634630
 H  -20.608596    7.469889   13.582926
 H  -20.829896    9.240344   13.668552
