40 
6elo_ligand_ani.xyz
 C   64.452161   32.109913   27.161828
 C   63.217578   32.410926   26.593950
 C   63.124280   33.391043   25.614964
 C   66.956599   32.399917   27.329735
 C   67.530041   31.125493   26.704221
 C   64.190959   35.198653   24.211361
 C   64.553660   36.860886   22.757107
 C   65.078578   36.249129   23.928132
 C   66.158074   36.769426   24.777968
 C   68.215520   37.801002   26.402336
 C   66.983854   37.470108   26.957410
 C   65.974038   36.958550   26.152724
 C   64.258444   34.114020   25.204221
 C   65.481522   33.745757   25.775662
 C   65.613601   32.774007   26.756537
 O   64.582393   31.160781   28.131949
 O   61.925949   33.671349   25.020096
 N   63.230220   35.287674   23.264605
 N   63.430383   36.271851   22.383173
 C   67.409145   37.110690   24.264926
 C   68.433962   37.617685   25.042399
 F   67.654179   36.915781   22.950329
 C   65.064563   38.040587   21.982688
 H   62.325537   31.867959   26.915547
 H   66.866314   32.262551   28.413261
 H   67.652565   33.232603   27.169591
 H   68.510500   30.891657   27.131509
 H   66.867341   30.274281   26.883309
 H   67.648930   31.241164   25.621683
 H   69.008705   38.200564   27.027654
 H   66.808616   37.609159   28.019900
 H   65.020850   36.679766   26.595269
 H   66.378994   34.252321   25.433467
 H   63.716751   30.775102   28.316496
 H   61.239893   33.142597   25.449701
 H   62.378038   34.749592   23.248257
 H   69.380826   37.860034   24.570106
 H   64.316902   38.325639   21.238792
 H   65.258118   38.891484   22.643608
 H   66.003415   37.803301   21.473530
