46 
6elp_ligand_ani.xyz
 C    0.884321   33.340096   25.447403
 C   -0.288093   32.862663   26.049962
 C   -1.533992   33.374247   25.706332
 C   -0.583044   35.968888   23.132729
 C   -1.501354   36.169393   22.124510
 C   -0.958473   37.211886   21.351223
 C    1.501566   37.237400   23.784302
 C    2.829552   37.134367   23.351594
 C    3.876527   37.497459   24.196773
 C    3.606553   37.970389   25.474559
 C    2.219006   32.762862   25.864752
 C    6.692731   31.468653   25.247143
 C    6.310989   32.734513   27.228684
 N    5.136926   33.194211   26.791669
 C    5.476514   31.947212   24.775537
 C   -1.642638   34.384654   24.753135
 C   -0.492610   34.903697   24.144760
 C    0.740465   34.337509   24.496388
 O   -0.157114   31.875807   26.979586
 N    0.188517   37.653607   21.838740
 N    0.416906   36.894819   22.927226
 C    2.291218   38.080630   25.912049
 C    1.247944   37.717915   25.071209
Cl    3.224561   36.497199   21.784435
 O   -2.850630   34.899669   24.406382
 C    7.126592   31.873176   26.503712
 C    4.731074   32.815070   25.575053
 C    3.407849   33.365113   25.108565
 H   -2.432252   32.979880   26.186829
 H   -2.417127   35.619899   21.977601
 H   -1.362576   37.671316   20.458301
 H    4.898078   37.403769   23.838502
 H    4.428121   38.252039   26.127029
 H    2.202635   31.673689   25.730178
 H    2.374105   32.917552   26.939941
 H    7.292713   30.793536   24.641239
 H    6.611562   33.073374   28.219115
 H    5.104153   31.656736   23.796000
 H    1.616261   34.704858   23.972254
 H   -1.030239   31.638620   27.317696
 H    2.074669   38.451436   26.910165
 H    0.217995   37.805427   25.405861
 H   -3.532803   34.477143   24.944867
 H    8.070679   31.531413   26.917797
 H    3.418097   34.451334   25.261079
 H    3.288068   33.183877   24.032132
