46 
6emh_ligand_ani.xyz
 C    6.548923    1.974554  -15.776345
 C    8.386515    0.384011  -15.869625
 C   10.453613   -0.947492  -16.167710
 C   11.205079   -1.467848  -17.387467
 C    9.191730   -2.671601  -17.798250
 C    4.204514    6.712000  -15.064728
 C    4.043179    6.115342  -13.824045
 N    4.714974    5.040037  -13.412078
 C    5.579305    4.494337  -14.278700
 C    5.832621    5.030818  -15.546637
 C    5.135862    6.166742  -15.954952
 C    5.371358    6.762098  -17.276302
 N    5.747182    6.011378  -18.372580
 C    5.879259    6.863691  -19.420021
 N    5.644964    8.101460  -19.066608
 C    5.331233    8.060766  -17.732772
 C    5.020317    9.321313  -16.984803
 N    6.251606    3.387593  -13.789204
 C    6.939013    2.400305  -14.505187
 C    7.256892    0.985415  -16.444862
 C    8.760675    0.800025  -14.581464
 C    8.039976    1.776602  -13.913906
 N    9.098646   -0.589355  -16.543218
 O   10.594129   -2.600800  -17.976847
 C    8.533251   -1.302959  -17.672758
 H    5.662854    2.398626  -16.241023
 H   10.476099   -1.707033  -15.367702
 H   10.976825   -0.059767  -15.792347
 H   12.217450   -1.771053  -17.102262
 H   11.297482   -0.660371  -18.130799
 H    8.954837   -3.272981  -16.906382
 H    8.792430   -3.200999  -18.669003
 H    3.606386    7.575324  -15.334531
 H    3.331525    6.531569  -13.115091
 H    6.602010    4.584761  -16.169857
 H    5.801159    5.004928  -18.401196
 H    6.155119    6.534367  -20.413614
 H    5.477441   10.175050  -17.491155
 H    3.939484    9.508749  -16.938228
 H    5.396510    9.272667  -15.957302
 H    6.120552    3.258221  -12.795752
 H    6.933006    0.697382  -17.439894
 H    9.611476    0.341697  -14.085532
 H    8.346132    2.082617  -12.915555
 H    8.652337   -0.745589  -18.617505
 H    7.458071   -1.449598  -17.512203
