86 
6en4_ligand_dft.xyz
 C   -0.813448   -0.702164   -0.563967
 C   -0.048798   -0.403662    1.828921
 C    0.156309   -0.488155    0.339673
 C   -2.232890   -0.905057   -0.297249
 C   -3.132879   -1.076471   -1.272913
 C    1.575694   -0.334571   -0.145736
 C    2.563550   -1.364874    0.437435
 C    3.031426    3.094421   -0.118400
 C    4.350002    3.513572   -0.802693
 C    5.453582    2.450951   -0.703979
 C    5.847785    2.092156    0.728402
 C    6.873448    0.960633    0.865791
 C    2.512092    1.796178   -0.685746
 C    8.217852    1.321618    0.228574
 O  -11.020494    0.833413   -0.523572
 C   -6.601222   -1.303683    0.448529
 C   -9.742882    0.927617    0.092209
 C   -8.752846   -0.341128   -1.865846
 C   -8.843475   -0.246249   -0.340142
 C  -10.730338    2.261289    2.019074
 O   -7.206093   -0.624967    1.547748
 C   -9.870311    1.067110    1.611127
 O    2.538776    1.526674   -1.872348
 O    2.039764    0.979493    0.257768
 O    4.119382    3.868059   -2.147419
 O    7.033290    0.783899    2.268264
 C   -7.450016   -0.129856    0.232847
 O    7.272324   -1.375464    0.661276
 O    6.789191   -2.579685   -1.184083
 C   -5.099590   -1.218488    0.332238
 C   -4.614706   -1.299903   -1.121163
 C   -5.004768   -2.628607   -1.790820
 C    3.957703   -1.064381   -0.038900
 C    4.961413   -0.707604    0.758406
 C    6.327320   -0.351782    0.257150
 C    7.388563   -2.449659   -0.145783
 C    8.359993   -3.446391    0.431723
 C    2.139661   -2.784852    0.044529
 H   -0.531083   -0.730886   -1.616694
 H    0.565703    0.398724    2.249397
 H   -1.088186   -0.205014    2.097199
 H    0.250598   -1.336935    2.323322
 H   -2.556386   -0.915825    0.740319
 H   -2.779583   -1.071197   -2.306155
 H    1.608050   -0.381979   -1.236824
 H    2.545041   -1.270696    1.530585
 H    2.287864    3.871755   -0.327124
 H    3.135920    3.012138    0.965282
 H    4.695309    4.428015   -0.306613
 H    5.111824    1.558683   -1.243255
 H    6.314619    2.840255   -1.257119
 H    6.264080    2.970903    1.236354
 H    4.964331    1.790887    1.300893
 H    8.126369    1.468228   -0.852317
 H    8.600521    2.243288    0.676672
 H    8.950138    0.525776    0.397842
 H  -11.473746    0.080018   -0.122402
 H   -7.048038   -2.279801    0.250788
 H   -9.314776    1.854333   -0.314708
 H   -8.242106    0.537770   -2.278576
 H   -9.749895   -0.382485   -2.309141
 H   -8.191185   -1.230804   -2.170817
 H   -9.283805   -1.173276    0.057371
 H  -10.835983    2.317556    3.106929
 H  -10.279830    3.199685    1.675842
 H  -11.727809    2.193621    1.576099
 H   -8.872863    1.150242    2.054964
 H  -10.297360    0.136228    2.013448
 H    3.658921    3.110828   -2.544295
 H    7.608122    0.015258    2.384890
 H   -6.943426    0.817156    0.021251
 H   -4.785797   -0.266728    0.776282
 H   -4.639513   -2.019768    0.925548
 H   -5.118609   -0.495295   -1.680045
 H   -4.592515   -3.476254   -1.231682
 H   -6.091739   -2.747629   -1.846353
 H   -4.615068   -2.680580   -2.812889
 H    4.127989   -1.139267   -1.114052
 H    4.819050   -0.632114    1.835494
 H    6.332855   -0.302488   -0.834126
 H    7.956063   -3.856264    1.362591
 H    9.310212   -2.959558    0.667572
 H    8.518904   -4.252025   -0.284721
 H    2.131127   -2.900861   -1.045557
 H    1.135744   -3.016192    0.413810
 H    2.841484   -3.516842    0.453885
