86 
6en4_ligand_ani.xyz
 C  -53.778206   -6.406981   15.170671
 C  -54.510519   -4.495712   13.710458
 C  -53.498450   -5.288335   14.482018
 C  -55.099194   -6.915029   15.526678
 C  -55.275278   -8.086264   16.153734
 C  -52.066468   -4.787470   14.468751
 C  -51.881827   -3.428673   15.168219
 C  -50.776323   -5.475259   11.048627
 C  -49.243559   -5.353803   11.009307
 C  -48.636668   -4.311588   11.956405
 C  -49.035725   -2.871096   11.637638
 C  -48.304173   -1.793306   12.454130
 C  -51.348338   -5.751038   12.424654
 C  -46.820646   -1.716760   12.081441
 O  -52.663910   -7.006157   20.410440
 C  -56.468244   -8.199995   18.932503
 C  -53.840008   -6.411891   20.947416
 C  -54.436473   -5.453723   18.648019
 C  -54.868165   -6.343999   19.812248
 C  -54.694774   -4.316525   22.149919
 O  -55.907548   -8.590602   20.184723
 C  -53.492707   -5.060681   21.576530
 O  -51.567645   -6.849960   12.873145
 O  -51.599393   -4.608498   13.104951
 O  -48.730841   -6.642748   11.303269
 O  -48.934769   -0.566093   12.116133
 C  -55.137394   -7.749788   19.327713
 O  -47.906011   -0.801383   14.596199
 O  -47.707769   -1.951461   16.520921
 C  -56.640434   -9.278695   17.892631
 C  -56.598827   -8.728972   16.456201
 C  -56.867073   -9.846273   15.440320
 C  -50.422738   -3.055728   15.144940
 C  -49.915971   -2.100937   14.366970
 C  -48.466699   -1.992829   13.981034
 C  -47.579976   -0.922887   15.901359
 C  -47.044482    0.372029   16.461183
 C  -52.424559   -3.449521   16.599793
 H  -52.946338   -7.035178   15.497264
 H  -55.517105   -4.906614   13.813130
 H  -54.525347   -3.449919   14.040004
 H  -54.248585   -4.493547   12.646759
 H  -55.961919   -6.292593   15.288263
 H  -54.394703   -8.675885   16.415619
 H  -51.420919   -5.531487   14.947196
 H  -52.435874   -2.692323   14.569573
 H  -51.241324   -4.573964   10.636784
 H  -51.037901   -6.325091   10.413938
 H  -48.980703   -5.081426    9.972233
 H  -48.900429   -4.572875   12.986915
 H  -47.543350   -4.411866   11.885243
 H  -48.847584   -2.662673   10.575484
 H  -50.112137   -2.735732   11.792896
 H  -46.336894   -0.899322   12.621606
 H  -46.293379   -2.642392   12.332960
 H  -46.717949   -1.532141   11.007522
 H  -52.038894   -7.110733   21.138245
 H  -57.301434   -7.496357   19.023700
 H  -54.262122   -7.061702   21.730912
 H  -54.295109   -4.414327   18.966538
 H  -53.489935   -5.807078   18.221934
 H  -55.190614   -5.463505   17.854626
 H  -55.807965   -5.964519   20.238283
 H  -54.378879   -3.409928   22.675281
 H  -55.398587   -4.012630   21.367730
 H  -55.239265   -4.944009   22.865145
 H  -52.766159   -5.248167   22.379730
 H  -52.970077   -4.443428   20.835519
 H  -47.767416   -6.585781   11.301407
 H  -48.612202    0.070047   12.773281
 H  -54.279586   -8.246893   18.864684
 H  -57.592737   -9.797144   18.063514
 H  -55.844414  -10.022674   18.022765
 H  -57.384332   -7.965676   16.353437
 H  -57.831159  -10.334525   15.625176
 H  -56.870747   -9.453317   14.418902
 H  -56.082378  -10.609855   15.502410
 H  -49.765544   -3.664502   15.770655
 H  -50.564319   -1.350765   13.912638
 H  -47.896125   -2.854455   14.344358
 H  -46.805169    0.233556   17.515221
 H  -46.145897    0.674758   15.914307
 H  -47.788858    1.166883   16.350139
 H  -52.274123   -2.482567   17.090643
 H  -53.495589   -3.672064   16.610139
 H  -51.911142   -4.216981   17.195004
