86 
6en4_ligand_xtb.xyz
 C   -0.831390   -0.770222   -0.568951
 C   -0.038025   -0.218928    1.749030
 C    0.150143   -0.431534    0.276168
 C   -2.207826   -1.005800   -0.205752
 C   -3.143468   -1.318123   -1.102521
 C    1.555537   -0.258043   -0.235599
 C    2.510760   -1.352562    0.293453
 C    2.974393    3.161031   -0.103361
 C    4.317769    3.559101   -0.754137
 C    5.359496    2.427981   -0.679923
 C    5.742370    2.064959    0.749034
 C    6.779897    0.939188    0.886582
 C    2.451861    1.888712   -0.726701
 C    8.135267    1.324709    0.285209
 O  -10.856730    0.796855   -0.731865
 C   -6.533178   -1.260267    0.739809
 C   -9.602289    0.946579   -0.104213
 C   -8.662823   -0.740331   -1.733206
 C   -8.752581   -0.335767   -0.261090
 C  -10.451165    2.691129    1.514478
 O   -7.110269   -0.356944    1.644374
 C   -9.764368    1.338562    1.368341
 O    2.415619    1.690266   -1.918652
 O    2.056501    1.022940    0.195754
 O    4.117666    3.956600   -2.084112
 O    6.909862    0.728771    2.279722
 C   -7.355091   -0.134392    0.282546
 O    7.200699   -1.405094    0.626143
 O    6.693913   -2.608135   -1.198521
 C   -5.030200   -1.239560    0.584839
 C   -4.594950   -1.594254   -0.841803
 C   -4.879888   -3.066231   -1.165610
 C    3.904508   -1.027627   -0.146104
 C    4.893660   -0.729596    0.679173
 C    6.275406   -0.370292    0.225768
 C    7.301370   -2.473067   -0.171726
 C    8.272820   -3.474023    0.399826
 C    2.086569   -2.719973   -0.238990
 H   -0.599691   -0.887700   -1.619935
 H    0.809476    0.325401    2.156474
 H   -0.942022    0.351799    1.947699
 H   -0.120288   -1.174669    2.267765
 H   -2.456916   -0.917342    0.839844
 H   -2.856942   -1.414085   -2.143032
 H    1.566851   -0.269928   -1.331931
 H    2.466726   -1.349790    1.386038
 H    2.255784    3.958234   -0.308172
 H    3.067874    3.037086    0.972889
 H    4.707846    4.444673   -0.238318
 H    4.957696    1.554570   -1.195917
 H    6.236326    2.770167   -1.231453
 H    6.149210    2.940757    1.257760
 H    4.859118    1.743305    1.301340
 H    8.051373    1.496550   -0.783299
 H    8.501167    2.228341    0.765816
 H    8.855122    0.525708    0.452597
 H  -11.372723    0.160370   -0.222760
 H   -6.994812   -2.244927    0.752668
 H   -9.115983    1.761228   -0.652677
 H   -8.094156    0.001501   -2.289575
 H   -9.658763   -0.797040   -2.163769
 H   -8.173515   -1.705605   -1.838684
 H   -9.235053   -1.138048    0.310264
 H  -10.642260    2.909941    2.562101
 H   -9.824741    3.480138    1.104980
 H  -11.397053    2.694252    0.977449
 H   -8.786614    1.361463    1.847452
 H  -10.359260    0.568242    1.868805
 H    3.632830    3.243486   -2.529740
 H    7.454564   -0.057481    2.407429
 H   -6.834316    0.729365   -0.128624
 H   -4.684470   -0.233627    0.830793
 H   -4.586175   -1.939533    1.295345
 H   -5.178962   -0.978782   -1.538915
 H   -4.347535   -3.712500   -0.471276
 H   -5.942940   -3.279815   -1.096637
 H   -4.549245   -3.301353   -2.174635
 H    4.068075   -1.027575   -1.215947
 H    4.758527   -0.743863    1.752418
 H    6.311167   -0.295668   -0.865888
 H    7.727823   -4.144609    1.061770
 H    9.046607   -2.970997    0.971714
 H    8.707431   -4.058401   -0.405449
 H    2.134285   -2.734800   -1.325150
 H    1.068934   -2.951026    0.066270
 H    2.754041   -3.487660    0.143958
