47 
6enm_ligand_dft.xyz
 O   -1.291667   -2.423890   -0.917898
 C   -1.952320   -1.615075   -1.561216
 N   -1.379416   -0.838381   -2.513345
 O    0.006740   -0.865744   -2.556863
 C   -3.450354   -1.424283   -1.394716
 C   -3.825991   -1.068747    0.028464
 C   -4.439294   -2.042279    0.817763
 C   -4.833842   -1.785765    2.126683
 C   -4.627682   -0.530147    2.684550
 C   -4.009954    0.457573    1.927729
 C   -3.608412    0.187948    0.620249
 S   -2.760374    1.539841   -0.201562
 O   -3.066814    2.763769    0.531035
 O   -3.048625    1.495720   -1.642407
 C   -1.023287    1.169472   -0.010728
 C   -0.140551    1.943147   -0.764029
 C    1.220871    1.707753   -0.667818
 C    1.722274    0.703106    0.171097
 C    0.815344   -0.055342    0.917374
 C   -0.553732    0.170585    0.833697
 C    3.178172    0.441554    0.253775
 C    4.102740    1.495936    0.268185
 C    5.462464    1.255348    0.344338
 C    5.942531   -0.057741    0.404988
 O    7.289044   -0.190332    0.475959
 C    7.825087   -1.493271    0.541839
 C    5.038757   -1.120928    0.389476
 C    3.672777   -0.861053    0.315382
 H   -1.741835    0.100234   -2.656764
 H    0.222315   -1.440080   -1.793478
 H   -3.913618   -2.382239   -1.648504
 H   -3.825552   -0.673613   -2.092223
 H   -4.611007   -3.025354    0.390058
 H   -5.307795   -2.571135    2.707315
 H   -4.941643   -0.317120    3.701016
 H   -3.836409    1.446839    2.336519
 H   -0.519709    2.705002   -1.437881
 H    1.905584    2.285557   -1.280610
 H    1.182649   -0.827071    1.586537
 H   -1.236732   -0.441065    1.412128
 H    3.747429    2.522387    0.243839
 H    6.177828    2.070613    0.366321
 H    7.476173   -2.026928    1.435188
 H    7.571693   -2.078097   -0.351588
 H    8.907219   -1.370456    0.596035
 H    5.379343   -2.149203    0.423819
 H    2.982948   -1.699978    0.279584
