56 
6ep4_ligand_ani.xyz
 N    0.214189   62.490552   71.574343
 C    1.203706   62.882505   70.490041
 C    2.286905   63.877361   70.894008
 C    3.246376   64.167276   69.740053
 C    4.355782   65.145980   70.122357
 C    5.386446   65.389928   69.013759
 C    4.807360   65.868048   67.677350
 C    3.974916   67.147261   67.783433
 C    3.394701   67.640873   66.455385
 C    4.446372   68.071460   65.429639
 C    3.797631   68.632009   64.167005
 N    4.745943   69.070930   63.064187
 C   -0.532069   63.672513   72.085721
 C   -0.764035   61.552019   70.977123
 C    0.889135   61.794867   72.703264
 C    5.635094   70.175421   63.516172
 C    3.927566   69.572642   61.935946
 C    5.568025   67.934097   62.567459
 H    1.658828   61.948317   70.141435
 H    0.606335   63.289023   69.666186
 H    1.831761   64.820988   71.222117
 H    2.861782   63.488947   71.744798
 H    3.701969   63.228089   69.391225
 H    2.678601   64.566207   68.887271
 H    3.908985   66.101430   70.431532
 H    4.879770   64.762571   71.008428
 H    6.119374   66.127227   69.370450
 H    5.947574   64.461050   68.839327
 H    5.639741   66.024201   66.980091
 H    4.193263   65.070857   67.234880
 H    3.145823   66.982003   68.483457
 H    4.593267   67.941209   68.228325
 H    2.762646   66.851374   66.020730
 H    2.727099   68.489499   66.660546
 H    5.100896   68.824579   65.887237
 H    5.077579   67.212927   65.171118
 H    3.135336   67.882863   63.717704
 H    3.188127   69.509647   64.411347
 H   -1.304979   63.324743   72.776623
 H    0.141123   64.346833   72.614068
 H   -0.998951   64.191473   71.244753
 H   -1.486683   61.255647   71.741055
 H   -1.280404   62.049337   70.152309
 H   -0.235042   60.670397   70.606576
 H    0.125588   61.443046   73.402627
 H    1.448742   60.941379   72.312396
 H    1.562051   62.476340   73.222673
 H    6.221349   70.523455   62.661252
 H    5.020381   70.994910   63.896935
 H    6.312181   69.823949   64.293955
 H    4.590584   69.894233   61.129328
 H    3.275549   68.770436   61.581504
 H    3.324677   70.417459   62.278196
 H    6.147801   68.273807   61.704767
 H    6.251246   67.591468   63.343899
 H    4.904991   67.119339   62.265635
