16 
6eq2_ligand_ani.xyz
 C  -13.137960   12.959509   12.682739
 C  -13.862377   11.635658   14.295236
 C  -14.506508   10.869254   15.248294
 C  -13.677981   10.119633   16.074884
 C  -12.286248   10.176985   15.905123
 C  -12.453477   11.632546   14.196025
 N  -13.205794   13.908355   11.681091
 N  -14.287213   12.479507   13.270695
 N  -11.663712   10.914088   14.988697
 N  -12.033790   12.480684   13.179041
 H  -15.587695   10.841828   15.355540
 H  -14.098794    9.488170   16.852145
 H  -11.638614    9.589138   16.552947
 H  -12.295124   14.068833   11.267683
 H  -13.909176   13.737169   10.973883
 H  -15.174538   12.960643   13.240978
