16 
6eq2_ligand_xtb.xyz
 C  -13.125203   12.951868   12.686462
 C  -13.856266   11.649297   14.298567
 C  -14.499438   10.889745   15.249788
 C  -13.674119   10.135538   16.074039
 C  -12.292983   10.180787   15.903648
 C  -12.433403   11.630646   14.203289
 N  -13.167159   13.885679   11.695815
 N  -14.269692   12.504157   13.303008
 N  -11.663726   10.905459   14.994680
 N  -12.030892   12.453009   13.186230
 H  -15.575652   10.877933   15.352983
 H  -14.100148    9.513497   16.845664
 H  -11.647801    9.592995   16.543060
 H  -12.287021   14.005141   11.220602
 H  -13.981850   13.897531   11.103514
 H  -15.213648   12.788718   13.103649
