25 
6eq3_ligand_ani.xyz
 C  -15.934250   10.195388  -21.789161
 C  -18.156319    9.253320  -21.461632
 C  -19.145150   10.659782  -23.336598
 C  -14.408145   12.334610  -23.673038
 C  -13.334318   13.045257  -24.115821
 C  -12.563800   11.766781  -22.446629
 C  -13.951511   11.497098  -22.595095
 C  -14.504788   10.548167  -21.719560
 C  -13.642185    9.963646  -20.791664
 C  -12.294055   10.326859  -20.759829
 C  -18.036940   10.179982  -22.448988
 N  -12.221184   12.708833  -23.382542
 N  -11.727796   11.224328  -21.574042
 N  -16.784774   10.707139  -22.629547
 O  -20.336294    9.989696  -22.981987
 S  -16.633058    9.016697  -20.708993
 H  -19.050355    8.725204  -21.164946
 H  -18.864165   10.467876  -24.383495
 H  -19.239922   11.750452  -23.221242
 H  -15.417937   12.383422  -24.053303
 H  -13.267149   13.778866  -24.909182
 H  -14.002879    9.222276  -20.084423
 H  -11.634558    9.862402  -20.030861
 H  -11.291893   13.079308  -23.494302
 H  -21.038576   10.304610  -23.563118
