24 
6eq4_ligand_ani.xyz
 C  -15.972146   10.319982  -20.717267
 C  -16.961447   11.291764  -20.647202
 C  -14.628129   12.313484  -22.948552
 C  -13.591654   12.881441  -23.629283
 C  -12.652648   11.611108  -22.045738
 C  -14.060484   11.485299  -21.920387
 C  -14.532562   10.610759  -20.931943
 C  -13.566526    9.967019  -20.158641
 C  -12.207843   10.206235  -20.369444
 C  -16.420266    9.009437  -20.540172
 C  -17.770598    8.752404  -20.345502
 C  -18.293558   10.956478  -20.439692
 F  -16.651466   12.597814  -20.757395
 N  -12.400053   12.466393  -23.088856
 N  -11.719184   11.018764  -21.311175
 N  -18.707671    9.702692  -20.292472
 H  -15.674643   12.465994  -23.170552
 H  -13.610309   13.559906  -24.473041
 H  -13.874027    9.286735  -19.369228
 H  -11.471765    9.701326  -19.747380
 H  -15.715377    8.184126  -20.577910
 H  -18.115584    7.728152  -20.219353
 H  -19.034170   11.752142  -20.395843
 H  -11.475888   12.726547  -23.392969
