30 
6eq6_ligand_xtb.xyz
 N    0.850636    2.630073   -0.275880
 C    0.048756    1.512233   -0.171379
 N   -1.226193    1.721422   -0.005524
 C   -2.058698    0.650204    0.074884
 C   -3.432972    0.837693    0.277090
 C   -4.273728   -0.246120    0.285198
 C    0.591821    0.170383   -0.217248
 N   -0.214383   -0.865941   -0.238733
 C   -1.547384   -0.657636   -0.103879
 C   -2.431296   -1.747750   -0.105201
 C   -3.772536   -1.538329    0.089295
 N    1.925748   -0.086864   -0.321445
 C    2.978263    0.730797    0.259811
 C    3.946448   -0.279671    0.876180
 C    3.826765   -1.463889   -0.078744
 C    2.333421   -1.484336   -0.382893
 H    0.304609    3.474668   -0.376474
 H    1.629027    2.563412   -0.910939
 H   -3.800029    1.842483    0.420130
 H   -5.333709   -0.106767    0.440909
 H   -2.025791   -2.737604   -0.248997
 H   -4.453934   -2.376858    0.095526
 H    2.580537    1.432006    0.994118
 H    3.492663    1.295389   -0.529996
 H    3.605052   -0.566604    1.871441
 H    4.958952    0.112106    0.950831
 H    4.169756   -2.398588    0.359016
 H    4.398849   -1.271249   -0.987323
 H    2.095309   -1.891972   -1.367410
 H    1.774892   -2.062719    0.361547
