30 
6eq6_ligand_dft.xyz
 N    0.885082    2.592080   -0.331040
 C    0.034850    1.508477   -0.187828
 N   -1.236871    1.734751   -0.035840
 C   -2.069328    0.649170    0.055406
 C   -3.454481    0.841426    0.233332
 C   -4.302267   -0.242926    0.269714
 C    0.581628    0.153936   -0.209564
 N   -0.212734   -0.881352   -0.208353
 C   -1.558978   -0.660233   -0.080256
 C   -2.444799   -1.757102   -0.050151
 C   -3.794673   -1.550181    0.124361
 N    1.946114   -0.044603   -0.323940
 C    2.911998    0.696500    0.518262
 C    3.934115   -0.363000    0.941012
 C    3.896106   -1.356266   -0.222063
 C    2.403609   -1.424748   -0.527353
 H    0.372278    3.446393   -0.510375
 H    1.648906    2.446115   -0.977293
 H   -3.821400    1.858069    0.333681
 H   -5.368888   -0.092572    0.407428
 H   -2.027731   -2.753553   -0.157314
 H   -4.473922   -2.396980    0.152489
 H    2.417073    1.173673    1.367225
 H    3.407574    1.486031   -0.060765
 H    3.604248   -0.857315    1.861694
 H    4.922779    0.067096    1.121885
 H    4.312063   -2.334931    0.030076
 H    4.449294   -0.960057   -1.081564
 H    2.170723   -1.752329   -1.544608
 H    1.889190   -2.106100    0.162428
