82 
6er4_ligand_ani.xyz
 C   -2.182082   -0.652737    3.349320
 C   -0.928448   -0.813762    2.453992
 C   -0.532249   -2.262699    2.214975
 C   -1.467682   -2.986316    1.246153
 C   -1.696227   -2.157834   -0.028618
 C   -2.118441   -0.713417    0.303684
 C   -2.162889    0.192126   -0.954472
 C   -2.272032    1.708017   -0.692150
 C   -3.612574    2.138895   -0.112990
 C   -2.426450   -2.993939   -2.239987
 C   -3.414875   -3.892305   -2.944764
 N   -2.644877   -2.813577   -0.908271
 O   -2.519066   -1.756769    4.015897
 O   -2.811057    0.377204    3.456246
 O    0.152597   -0.175516    3.093213
 O   -0.959122   -4.260165    0.911336
 O   -1.173273   -0.153092    1.232243
 O   -1.001615    0.033798   -1.761452
 O   -1.224628    2.213492    0.119550
 O   -3.999393    1.436157    1.043310
 O   -1.492894   -2.441611   -2.826933
 C    2.172938    1.853606    0.313420
 C    2.088647    3.362487    0.204080
 C    2.161983    4.026892    1.577136
 C    1.114046    3.435924    2.523952
 C    1.235400    1.906678    2.561874
 C    0.079196    1.233956    3.300912
 O    1.834656    1.314842   -0.923945
 O    3.158281    3.779807   -0.624773
 O    1.988916    5.421734    1.442116
 O   -0.171697    3.896754    2.147507
 O    1.235569    1.357825    1.246092
 C    2.207654   -2.407361   -1.309981
 C    1.844891   -1.112462   -0.604488
 C    2.479584    0.101696   -1.298518
 C    2.277577    0.041670   -2.806990
 C    2.900470    1.267092   -3.490854
 C    2.098567   -2.280345   -2.832753
 O    2.645909   -3.442385   -3.387435
 O    1.341305   -3.444791   -0.862561
 O    2.220890   -1.206754    0.750884
 O    2.825773   -1.167609   -3.316684
 O    4.054080    1.756226   -2.833954
 H   -0.507490   -2.797788    3.166316
 H    0.483551   -2.262127    1.803144
 H   -2.431489   -3.151790    1.744333
 H   -0.745228   -2.122872   -0.562054
 H   -3.110070   -0.716015    0.767975
 H   -3.050071   -0.101530   -1.532518
 H   -2.175101    2.173634   -1.683166
 H   -4.394008    1.949122   -0.858682
 H   -3.577076    3.224375    0.063220
 H   -4.431273   -3.496674   -2.850291
 H   -3.401374   -4.900958   -2.517982
 H   -3.150090   -3.948096   -4.000538
 H   -3.358071   -3.382867   -0.473193
 H   -3.301301   -1.518811    4.542366
 H   -0.165290   -4.117498    0.363773
 H   -1.134579   -0.782346   -2.290269
 H   -0.722467    1.442006    0.444234
 H   -3.312162    1.507707    1.723764
 H    3.186923    1.535898    0.612513
 H    1.125342    3.612351   -0.263787
 H    3.166002    3.862320    1.989846
 H    1.287294    3.831223    3.531600
 H    2.187376    1.638465    3.051329
 H   -0.875440    1.649890    2.956978
 H    0.161779    1.426007    4.377395
 H    3.153851    4.747001   -0.603039
 H    1.026839    5.557876    1.447943
 H   -0.482527    3.401031    1.367170
 H    3.253208   -2.639589   -1.067734
 H    0.765329   -0.959452   -0.698243
 H    3.552961    0.134963   -1.058305
 H    1.189716    0.053872   -3.000881
 H    3.193241    0.987541   -4.508088
 H    2.138886    2.057283   -3.559217
 H    1.033056   -2.165436   -3.118486
 H    2.966816   -3.195295   -4.264313
 H    1.575795   -4.228540   -1.385106
 H    1.803215   -0.455981    1.211081
 H    3.766372    2.429370   -2.193306
