23 
6ew6_ligand_ani.xyz
 C   11.833730    2.632096  -11.288416
 C   10.793258    2.795367  -12.193745
 C   10.965058    2.402039  -13.512328
 C   14.089260    0.514009  -18.098101
 C   15.557664    1.065124  -16.519741
Cl    9.628379    2.608203  -14.613771
 C   12.175978    1.851758  -13.972193
 C   13.209121    1.684784  -13.042420
 C   13.030970    2.074597  -11.720529
 N   12.272603    1.467987  -15.311518
 C   13.358477    1.190310  -16.092657
 N   14.594292    1.349769  -15.631624
 N   16.834523    1.207838  -16.090530
 N   15.373904    0.634636  -17.775664
 N   13.038889    0.771713  -17.334696
 H   11.708259    2.935110  -10.253563
 H    9.842334    3.222333  -11.888031
 H   13.877175    0.167435  -19.108202
 H   14.146159    1.247837  -13.364338
 H   13.850121    1.939875  -11.019066
 H   11.399735    1.390783  -15.815826
 H   17.559157    1.201198  -16.790699
 H   16.980955    1.742199  -15.249341
