37 
6ew7_ligand_dft.xyz
 C   -1.145130    3.960130   -0.665538
 C   -0.171108    3.863131    0.314790
 C   -0.128826    2.797527    1.202239
 C   -3.971981   -1.365616   -0.070289
 C   -3.679609   -2.714425   -0.063594
 C   -1.474795   -2.255651    0.029503
 C    1.050174   -2.177742    0.046747
 C    2.162883   -3.015202    0.219836
 C    3.438862   -2.497311    0.182655
 C    3.694099   -1.135706   -0.038065
 C    2.566391   -0.324468   -0.206106
 C    1.266029   -0.812041   -0.161785
 C    5.160004   -0.768503   -0.044541
 F    0.759297    4.823807    0.407538
 C   -1.090052    1.800919    1.104640
 C   -2.068980    1.866270    0.110801
 C   -2.092120    2.946890   -0.769240
 N   -3.080183    0.877187    0.008944
 C   -2.885718   -0.466163   -0.007001
 N   -1.636115   -0.935632    0.038558
 N   -2.436237   -3.188789   -0.011098
Cl   -5.617537   -0.797141   -0.144460
 N   -0.203557   -2.778596    0.075163
Cl    2.689502    1.414385   -0.476204
 O    5.542785    0.422859   -0.518572
 O    5.991518   -1.550017    0.346792
 H   -1.147495    4.807105   -1.342140
 H    0.647128    2.758277    1.958086
 H   -4.483558   -3.445533   -0.100931
 H    2.019246   -4.078675    0.389724
 H    4.297298   -3.142445    0.330311
 H    0.429553   -0.140499   -0.289578
 H   -1.075472    0.963956    1.792238
 H   -2.849474    2.991708   -1.546429
 H   -4.026811    1.196566   -0.134833
 H   -0.214566   -3.788286    0.110402
 H    4.784557    0.956247   -0.800450
