23 
6ewe_ligand_ani.xyz
 C   59.898618    9.745639   25.939206
 C   58.486785   10.244372   27.923879
 C   57.562355   10.632009   28.899717
 C   57.802541   10.263086   30.211547
 C   58.941766    9.518742   30.550068
 C   59.853188    9.138266   29.581921
 C   59.636287    9.504072   28.244921
 C   63.746447    7.345072   26.405054
 O   64.226008    7.664197   27.624103
 C   62.354501    7.819555   26.184396
 C   61.721355    8.512319   27.154712
 C   60.453264    9.213792   27.062985
 O   64.406709    6.736570   25.592633
 S   61.637817    7.317208   24.648897
 S   58.412470   10.580014   26.213031
 H   60.310827    9.715524   24.938151
 H   56.678311   11.207395   28.637386
 H   57.099334   10.552366   30.987596
 H   59.111543    9.237331   31.585660
 H   60.726843    8.551567   29.861076
 H   65.128983    7.308660   27.652091
 H   62.223101    8.553624   28.121152
 H   62.785946    6.838619   24.154817
