32 
6exi_ligand_ani.xyz
 O   39.659608   17.973507   40.599611
 C   39.106966   18.006571   39.300782
 C   40.251150   18.215977   38.323107
 O   41.092189   17.055400   38.343419
 C   39.804952   18.379483   36.869305
 O   40.786407   19.126599   36.189327
 C   39.809631   16.939429   36.363140
 O   40.001529   16.898286   34.977130
 C   40.996794   16.343478   37.132047
 N   40.816719   14.932542   37.424994
 C   40.903819   14.289361   38.647299
 N   40.752180   12.997354   38.575467
 C   40.553058   12.760453   37.223777
 C   40.330558   11.589607   36.476260
 N   40.291149   10.380520   37.069564
 N   40.160604   11.677173   35.146868
 C   40.208071   12.884723   34.587175
 N   40.406088   14.068880   35.180261
 C   40.583720   13.941943   36.498197
 H   39.034133   17.530408   41.182493
 H   38.598794   17.060141   39.057399
 H   38.378546   18.828100   39.196066
 H   40.852805   19.074606   38.636752
 H   38.813581   18.854145   36.777862
 H   40.805283   18.778947   35.284258
 H   38.890241   16.411641   36.657449
 H   40.146610   15.959911   34.737298
 H   41.918071   16.475834   36.550248
 H   41.087235   14.861373   39.547275
 H   40.091420    9.562339   36.517835
 H   40.378368   10.317251   38.071442
 H   40.059721   12.912016   33.513893
