49 
6ey8_ligand_ani.xyz
 C   -0.800358   33.524880   23.605901
 C   -2.035066   33.174882   24.221851
 C   -2.082483   32.655196   25.502084
 O   -3.170283   33.405651   23.516781
 C    0.367505   32.796859   25.570179
 C   -0.859354   32.476490   26.165368
 C    1.353169   32.463910   26.551969
 C    2.841189   32.594362   26.436494
 C    3.402052   32.106532   25.111443
 C    4.278462   32.906746   24.383097
 C    4.779965   32.489926   23.154493
 C    3.060602   30.853978   24.599453
 C   -0.271397   36.013388   20.818293
 C    0.157082   36.224647   23.270645
 C    2.621233   36.086615   22.610871
 C    3.971582   36.193481   22.921327
 C    0.390645   33.322759   24.271182
 C   -0.801574   34.149726   22.239190
 N   -0.227371   35.397725   22.139351
 O   -1.274816   33.593576   21.265284
 N   -0.552149   32.003518   27.402577
 N    0.779089   31.994527   27.645075
 C    4.424185   31.245184   22.644702
 C    3.569453   30.426205   23.376086
 C    1.642876   36.226245   23.593548
 C    4.355823   36.423830   24.238187
 C    3.403915   36.520044   25.246683
 C    2.057524   36.416846   24.913792
Cl    6.046982   36.572440   24.629434
 H   -3.027940   32.399878   25.976385
 H   -3.924234   33.131463   24.054423
 H    3.278412   32.041249   27.276371
 H    3.120464   33.650829   26.565444
 H    4.584726   33.866748   24.785694
 H    5.452211   33.141815   22.599235
 H    2.389524   30.205622   25.161881
 H    0.346993   36.915878   20.819047
 H    0.107953   35.307177   20.075263
 H   -1.295367   36.284093   20.532320
 H   -0.168683   37.253478   23.057330
 H   -0.401583   35.907167   24.154389
 H    2.342993   35.892615   21.579728
 H    4.725440   36.084987   22.147327
 H    1.335852   33.577569   23.803999
 H   -1.184580   31.680204   28.116660
 H    4.813299   30.910548   21.686799
 H    3.291764   29.448562   22.988875
 H    3.714605   36.669091   26.277198
 H    1.313666   36.492861   25.703291
