49 
6ey8_ligand_xtb.xyz
 C   -0.138736   33.734664   23.608176
 C   -1.290894   33.839970   24.420141
 C   -1.250518   33.535570   25.765425
 O   -2.440182   34.268379   23.822603
 C    1.135127   33.018104   25.491771
 C   -0.026542   33.136835   26.292906
 C    2.151660   32.600914   26.404578
 C    3.594900   32.354658   26.119351
 C    3.798369   31.773687   24.748425
 C    4.576906   32.426773   23.803176
 C    4.730111   31.900878   22.531742
 C    3.180906   30.578227   24.400402
 C   -0.461952   35.701440   20.416958
 C   -0.338983   36.403820   22.787172
 C    2.124185   36.158407   23.216564
 C    3.214827   36.078071   24.060610
 C    1.057665   33.296887   24.128515
 C   -0.232977   34.024444   22.139461
 N   -0.320479   35.335552   21.806766
 O   -0.192889   33.137770   21.308385
 N    0.347378   32.799829   27.550114
 N    1.654063   32.477811   27.610269
 C    4.103754   30.714828   22.191443
 C    3.330459   30.052842   23.130516
 C    0.844191   36.354575   23.721860
 C    3.024879   36.201243   25.427261
 C    1.761308   36.417010   25.950382
 C    0.679577   36.497068   25.093031
Cl    4.381029   36.089963   26.493668
 H   -2.136296   33.604144   26.382263
 H   -3.177320   34.190042   24.440326
 H    3.981717   31.680480   26.887587
 H    4.137398   33.300171   26.204296
 H    5.063799   33.355930   24.064882
 H    5.336174   32.420848   21.803597
 H    2.573297   30.064824   25.131948
 H    0.345889   36.368996   20.108541
 H   -0.418552   34.785940   19.829425
 H   -1.421427   36.194750   20.244379
 H   -0.317545   37.348171   22.234538
 H   -1.270940   36.376759   23.362612
 H    2.267423   36.046870   22.152466
 H    4.204935   35.920052   23.663364
 H    1.917035   33.189508   23.487145
 H   -0.213514   32.756911   28.384041
 H    4.215887   30.307955   21.197500
 H    2.839862   29.126658   22.869885
 H    1.626454   36.513548   27.016198
 H   -0.307417   36.659223   25.500335
