52 
6ey9_ligand_xtb.xyz
 C   67.326322   33.928320   24.023183
 C   66.147598   33.937084   24.802261
 C   66.191112   33.720649   26.163944
 O   64.970763   34.182458   24.156709
 C   68.632236   33.483295   25.971765
 C   67.439738   33.500574   26.737134
 C   69.661411   33.223121   26.929548
 C   71.136994   33.115639   26.720414
 C   71.494012   32.807565   25.294689
 C   72.305783   33.662604   24.563831
 C   72.578204   33.394586   23.233146
 C   70.980032   31.673904   24.677486
 C   66.851940   35.585022   20.676964
 C   66.841454   36.480412   22.986806
 C   67.832413   36.861466   25.276095
 C   68.912957   36.960911   26.132888
 C   70.590090   30.229014   22.667003
 C   68.554262   33.685247   24.594156
 C   67.241412   34.091461   22.534747
 N   66.995517   35.348050   22.093959
 O   67.419232   33.152390   21.781823
 N   67.810088   33.268668   28.018306
 N   69.141396   33.098898   28.126477
 C   72.033805   32.280790   22.621459
 C   71.226451   31.405566   23.339168
 C   68.017860   36.641527   23.917899
 C   70.194614   36.847627   25.621453
 C   70.403683   36.653693   24.265995
 C   69.313890   36.554411   23.422920
Cl   71.548098   36.954552   26.688899
 H   65.288720   33.716578   26.760168
 H   64.232838   34.055802   24.765433
 H   71.516545   32.339086   27.390479
 H   71.600867   34.058798   27.022471
 H   72.722574   34.539953   25.036915
 H   73.211640   34.063502   22.667672
 H   70.350474   31.004371   25.246996
 H   67.588931   36.312306   20.328532
 H   67.011652   34.636619   20.166728
 H   65.848733   35.952656   20.448801
 H   66.752320   37.374389   22.362197
 H   65.916466   36.385231   23.565974
 H   66.831837   36.940069   25.674821
 H   68.763809   37.115529   27.189980
 H   71.226941   29.837191   21.876963
 H   70.380382   29.436808   23.381868
 H   69.645676   30.540479   22.218531
 H   69.433919   33.667553   23.973540
 H   67.231833   33.197719   28.838455
 H   72.232395   32.087134   21.577139
 H   71.406005   36.573751   23.877118
 H   69.474074   36.383969   22.369091
