52 
6ey9_ligand_dft.xyz
 C   67.266791   33.838039   23.975297
 C   66.065827   33.866996   24.726049
 C   66.058119   33.663298   26.093679
 O   64.926891   34.128558   24.024029
 C   68.507202   33.391706   25.985643
 C   67.297880   33.424858   26.705985
 C   69.513562   33.129093   26.978468
 C   71.009276   33.026891   26.820459
 C   71.436641   32.758284   25.395581
 C   72.207629   33.685732   24.698295
 C   72.498015   33.483334   23.351149
 C   70.986708   31.617467   24.727199
 C   67.032056   35.637801   20.649059
 C   66.915143   36.468404   22.998092
 C   67.946811   36.891775   25.265741
 C   69.041718   37.019073   26.114066
 C   70.619789   30.252635   22.638853
 C   68.471408   33.589957   24.597274
 C   67.271604   34.061549   22.485527
 N   67.069480   35.352476   22.070635
 O   67.499453   33.144643   21.710628
 N   67.633372   33.196737   28.001435
 N   68.968550   33.006356   28.168761
 C   72.006218   32.364457   22.689826
 C   71.237470   31.415915   23.371394
 C   68.115879   36.688971   23.898523
 C   70.319730   36.946311   25.576680
 C   70.516812   36.758516   24.212947
 C   69.410626   36.634329   23.382229
Cl   71.708091   37.081773   26.635919
 H   65.132020   33.679742   26.662585
 H   64.166577   34.060803   24.613835
 H   71.369651   32.240953   27.494106
 H   71.463650   33.963665   27.164195
 H   72.566446   34.576625   25.207219
 H   73.099971   34.210010   22.812155
 H   70.369144   30.899888   25.264481
 H   67.826680   36.341021   20.370670
 H   67.178948   34.701370   20.112506
 H   66.065436   36.071540   20.366730
 H   66.750664   37.359293   22.382709
 H   66.011205   36.338943   23.603272
 H   66.945754   36.901178   25.688433
 H   68.904926   37.147794   27.181968
 H   71.249155   29.919430   21.807694
 H   70.453071   29.400999   23.305454
 H   69.648286   30.548674   22.224708
 H   69.378378   33.585021   24.005334
 H   67.029017   33.105372   28.799971
 H   72.211026   32.225807   21.631176
 H   71.521383   36.696224   23.809869
 H   69.561863   36.448713   22.322507
