52 
6eya_ligand_ani.xyz
 C   66.054466   34.060679   24.232594
 C   64.810519   33.574640   24.773628
 C   64.775195   32.940245   26.007150
 O   63.649956   33.718696   24.126081
 C   67.225307   33.158582   26.131243
 C   65.990848   32.743012   26.662638
 C   68.197883   32.739896   27.102029
 C   69.690055   32.918774   27.096405
 C   70.332137   32.903957   25.721728
 C   70.995608   34.029259   25.232872
 C   71.485552   32.866607   23.179971
 C   70.258418   31.766578   24.921543
 C   70.741091   30.481362   22.803918
 C   70.075215   37.175818   24.057955
 C   69.241721   36.409125   23.236387
 C   67.250892   37.177146   24.406367
 N   67.072950   35.573730   22.530376
 C   69.465470   37.948034   25.019760
 C   68.953527   39.454012   26.569425
 C   67.246987   33.818477   24.895693
 C   66.024782   34.771550   22.918262
 O   65.067896   34.634034   22.146923
 N   66.283744   32.143061   27.845356
 N   67.606639   32.136456   28.118926
 C   70.832107   31.728883   23.647623
 C   71.565380   34.013657   23.966532
 C   67.857166   36.381187   23.419049
 C   67.097631   35.951996   21.116501
 C   68.085084   37.948050   25.183301
 O   67.751810   38.769186   26.226532
 O   70.038162   38.760137   25.962287
 H   63.825332   32.605381   26.409937
 H   63.859733   34.060760   23.224330
 H   70.103079   32.123458   27.728370
 H   69.942070   33.863623   27.597051
 H   71.056839   34.926052   25.848098
 H   71.933657   32.857028   22.189021
 H   69.750804   30.879054   25.300543
 H   71.223615   29.630135   23.299320
 H   69.696617   30.202158   22.619972
 H   71.225434   30.620560   21.832907
 H   71.155724   37.163465   23.945762
 H   69.672676   35.794876   22.449494
 H   66.173859   37.185441   24.550774
 H   69.078505   39.447255   27.654964
 H   68.912727   40.482687   26.182410
 H   68.185362   34.139611   24.459348
 H   65.638587   31.723604   28.494103
 H   72.065339   34.898700   23.576339
 H   68.030297   36.481587   20.910455
 H   67.043979   35.056745   20.491895
 H   66.251566   36.600994   20.859853
