46 
6eyb_ligand_dft.xyz
 C   64.925654   33.171896   25.831931
 C   65.038445   33.755416   24.597988
 C   66.314979   33.937489   23.949556
 C   66.264483   35.183425   20.504665
 C   68.333752   36.143332   23.108333
 C   69.610720   36.332484   22.585602
 C   70.585745   36.951643   23.359992
 C   70.297561   37.362990   24.658760
 C   69.015610   37.176017   25.170763
 C   68.026495   36.581960   24.395110
 C   68.306863   32.446740   26.789054
 C   69.807325   32.417734   26.804857
 C   70.317715   31.168620   24.673990
 C   70.799179   31.114682   23.371354
 C   67.458888   33.501945   24.569389
 C   66.391356   34.590367   22.631512
 C   65.664702   34.368611   21.480104
 N   67.281843   35.874418   20.994250
 N   67.351007   35.515378   22.295334
 O   63.956500   34.202359   23.904669
 C   66.112048   32.757302   26.490268
 C   67.380300   32.930066   25.859873
 N   67.559001   32.037088   27.831540
 N   66.227881   32.201135   27.703474
 C   70.397386   32.350674   25.412836
 C   71.367979   32.246138   22.790234
 C   71.451471   33.427186   23.519838
 C   70.966993   33.479215   24.824722
 H   63.959940   33.036777   26.311261
 H   65.995517   35.299512   19.463449
 H   69.818314   36.001053   21.574709
 H   71.577799   37.107606   22.946049
 H   71.062820   37.840191   25.263493
 H   68.774543   37.510646   26.175114
 H   67.023261   36.454835   24.785302
 H   70.147599   31.558552   27.397777
 H   70.181187   33.314662   27.315248
 H   69.858560   30.289332   25.119402
 H   70.725695   30.190425   22.806154
 H   68.415553   33.611358   24.072534
 H   64.827082   33.697144   21.376301
 H   63.165394   34.044261   24.434101
 H   67.904533   31.631035   28.688250
 H   71.739768   32.206820   21.770869
 H   71.881168   34.317962   23.073372
 H   71.006387   34.416519   25.374615
