66 
6ez6_ligand_ani.xyz
 C  -13.034707  -30.102930   22.722462
 C  -15.144146  -29.148633   23.141418
 C   -8.944528  -30.181177   23.788709
 C   -8.245036  -31.414925   23.874347
 C   -6.914877  -31.478331   24.243061
 C  -12.017085  -33.266267   19.141716
 O  -11.646498  -32.427315   20.236063
 C  -12.684007  -31.865770   20.900591
 O  -13.832136  -32.087751   20.610790
 C  -12.190542  -30.978053   21.998293
 C  -10.855482  -30.995233   22.363665
 C  -10.378534  -30.175853   23.388929
 C  -11.307694  -29.363591   24.024299
 N  -12.601898  -29.330868   23.707660
 O  -14.323727  -30.042817   22.397558
 C   -6.256659  -32.768822   24.299821
 N   -6.755224  -33.943469   24.065980
 C   -5.689459  -34.806556   24.258251
 C   -4.582096  -34.108020   24.600069
 C   -3.167391  -34.478925   24.887139
 N   -2.316396  -34.497518   23.703881
 C   -2.034484  -33.161492   23.193397
 C   -1.217437  -33.254523   21.915217
 N    0.042361  -33.949236   22.158410
 C   -0.237137  -35.281183   22.684154
 C   -1.062556  -35.190460   23.958061
 C    0.908264  -33.978892   20.975168
 C    1.208467  -32.560334   20.485288
 C    2.222784  -34.700710   21.280254
 O   -4.939118  -32.785064   24.630906
 C   -6.224303  -30.271510   24.543108
 C   -4.940869  -29.904858   24.942905
 N   -4.971900  -28.560667   25.048196
 N   -6.137323  -27.989811   24.764050
 C   -6.925152  -29.033098   24.449727
 C   -8.293226  -28.999677   24.072076
 H  -16.145468  -29.266690   22.726253
 H  -15.134016  -29.405786   24.204115
 H  -14.798716  -28.117477   23.025983
 H   -8.765945  -32.343630   23.662041
 H  -11.080313  -33.635338   18.725346
 H  -12.638035  -34.095945   19.487336
 H  -12.572395  -32.696957   18.392342
 H  -10.165855  -31.644577   21.832097
 H  -10.997267  -28.722501   24.846868
 H   -5.790539  -35.876658   24.130058
 H   -3.171990  -35.494877   25.302548
 H   -2.767536  -33.814857   25.679271
 H   -1.477411  -32.555452   23.934961
 H   -2.976320  -32.644831   22.990757
 H   -1.012038  -32.240138   21.562457
 H   -1.817552  -33.765053   21.136974
 H   -0.776758  -35.903399   21.943784
 H    0.704107  -35.785657   22.918308
 H   -1.281596  -36.205160   24.314522
 H   -0.465267  -34.685620   24.744068
 H    0.402383  -34.524907   20.152493
 H    0.342206  -32.091032   20.008442
 H    1.529926  -31.934636   21.325078
 H    2.010898  -32.578010   19.740647
 H    2.091394  -35.782999   21.377646
 H    2.941509  -34.538808   20.470417
 H    2.655774  -34.313363   22.209074
 H   -4.043240  -30.463839   25.160124
 H   -4.202970  -27.964649   25.319872
 H   -8.789218  -28.041813   23.988499
