35 
6f1x_ligand_ani.xyz
 C    2.131928  -25.878211   17.869056
 C    1.277343  -25.105142   17.085621
 C    1.875835  -24.086067   16.323281
 C    3.833789  -19.754334   12.621308
 C    3.409419  -20.151372   11.209402
 C    3.291357  -23.964627   16.403408
 C    3.510613  -25.652975   17.853833
 C   -0.181976  -25.361186   17.062599
 C   -0.878927  -25.434880   15.853596
 C   -2.242988  -25.688089   15.858007
 C   -2.941696  -25.867923   17.045638
 C   -2.244193  -25.800087   18.247768
 C   -0.875379  -25.560909   18.258219
 C    1.444035  -23.033892   15.469242
 C    2.542710  -22.346303   15.041266
Cl   -3.101686  -25.782761   14.344865
 C    2.544555  -21.192204   14.120361
 O    1.507764  -20.593484   13.867109
 N    3.679721  -22.926331   15.582964
 N    3.750524  -20.838308   13.588254
 N    4.113483  -24.700309   17.133602
 H    1.728838  -26.683609   18.476617
 H    4.864151  -19.384787   12.629645
 H    3.190478  -18.951037   12.988635
 H    3.473913  -19.290123   10.535690
 H    4.046002  -20.947636   10.807432
 H    2.373652  -20.504438   11.215704
 H    4.163371  -26.272690   18.463927
 H   -0.352408  -25.311769   14.911675
 H   -4.009721  -26.059917   17.025266
 H   -2.774173  -25.944025   19.185176
 H   -0.340178  -25.509209   19.203615
 H    0.426427  -22.770079   15.201704
 H    4.573911  -22.474930   15.719350
 H    4.504507  -21.508353   13.610165
