24 
6f20_ligand_ani.xyz
 C    3.062702   -9.086792  -16.596666
 C   -3.010083   -8.747343  -14.756216
 C   -2.484778   -8.000501  -15.960143
 C    1.396251   -9.686664  -15.157067
 C    0.987883   -8.052519  -17.200555
 C    1.680692   -8.899368  -16.324367
 C    2.557869  -10.292972  -14.781332
 N    3.766358   -8.551028  -17.583967
 N    3.563980   -9.936329  -15.643737
 C    3.067351   -7.751332  -18.393898
 C    1.705614   -7.478716  -18.243704
 C   -0.465723   -7.711214  -17.109195
 O   -1.020898   -6.972189  -17.890929
 O   -1.079975   -8.305698  -16.079448
 H   -4.077948   -8.543573  -14.628182
 H   -2.880406   -9.825799  -14.883637
 H   -2.489903   -8.431317  -13.847586
 H   -2.600432   -6.917765  -15.857163
 H   -2.988323   -8.300439  -16.883610
 H    0.444070   -9.785998  -14.661900
 H    2.754096  -10.962776  -13.954020
 H    4.524605  -10.235374  -15.605925
 H    3.622015   -7.298894  -19.212356
 H    1.185983   -6.820400  -18.931397
