40 
6f3b_ligand_ani.xyz
 C    6.337245   35.756051   11.258051
 C    6.779400   36.302653   13.686077
 C    8.113742   34.866163   15.108831
 C    8.296509   34.007667   14.024336
 C    7.723809   34.294836   12.789007
 C    8.762157   34.553989   16.441186
 C   11.064566   33.782924   16.116138
 N   12.400550   34.176858   15.956519
 C   12.946363   35.337424   16.585727
 C   13.138387   35.400762   17.959924
 C   13.665313   36.557929   18.524817
 C   13.993745   37.657499   17.737311
 C   13.807577   37.594714   16.362286
 C   13.289967   36.438539   15.780706
 O   13.013906   35.690733   20.906188
 C    6.957506   35.444207   12.597980
 C    7.348014   36.016593   14.922115
 N   10.200249   34.787934   16.451174
 O   10.732248   32.621981   15.939799
 O   13.119486   36.409253   14.439957
 S   13.931778   36.627151   20.276742
 O   13.995583   38.028722   20.659508
 N   15.469746   35.997527   20.460816
 H    5.245581   35.824567   11.331364
 H    6.697434   36.714568   10.866509
 H    6.573264   34.984974   10.518965
 H    6.185091   37.206116   13.562538
 H    8.893487   33.106852   14.154204
 H    7.875006   33.609539   11.957166
 H    8.313462   35.154859   17.239267
 H    8.622934   33.498539   16.692581
 H   12.994673   33.355902   15.972775
 H   12.857976   34.559467   18.585125
 H   14.385495   38.555609   18.206062
 H   14.054336   38.432413   15.716924
 H    7.194935   36.698267   15.757479
 H   10.521068   35.741461   16.360760
 H   12.743700   35.541726   14.216078
 H   16.091673   36.699934   20.847173
 H   15.437038   35.158097   21.029836
