67 
6f5m_ligand_dft.xyz
 C   -3.574458    1.067859   -0.695961
 C   -3.861255   -2.156091    2.476433
 C   -3.377153   -2.728182    1.130228
 C   -4.348445   -2.511735   -0.010021
 C   -5.154202   -3.564520   -0.440313
 C   -6.089172   -3.408846   -1.458193
 C   -6.223900   -2.168059   -2.067277
 C   -5.435103   -1.094898   -1.667513
 C   -4.499323   -1.260072   -0.642002
 C   -2.517676    1.906693    0.060827
 C   -5.143633   -2.812971    2.982118
 C   -2.685748    3.401445   -0.189599
 C   -3.995106    4.007597    0.338346
 C   -4.194060    3.758621    1.836446
 C   -4.016758    5.507580    0.033412
 C   -0.547860    0.441610    0.275752
 C    0.847311    0.150278   -0.175844
 C    1.319418   -1.155453   -0.033836
 C    2.607430   -1.478995   -0.435508
 C    3.457482   -0.506768   -0.970530
 C    4.875626   -0.861813   -1.357590
 C    5.807400   -0.806726   -0.145348
 C    8.191828   -0.311404    0.775051
 C    5.997665    0.606866    0.443150
 C    2.987739    0.802867   -1.089923
 C    1.694045    1.128851   -0.699698
 N   -3.687324   -0.195287   -0.194595
 N   -1.177057    1.481643   -0.327786
 N    7.186028    0.499193    1.252133
 O   -4.198913    1.525685   -1.639380
 O   -1.093135   -0.229300    1.153319
 O    9.335978   -0.325757    1.144258
 O    6.085919    1.623889   -0.522474
 S    7.509401   -1.374253   -0.521628
 H   -3.059467   -2.285386    3.212720
 H   -4.020659   -1.074468    2.385575
 H   -2.393285   -2.303571    0.896575
 H   -3.218779   -3.806652    1.249624
 H   -5.041730   -4.531402    0.044243
 H   -6.702966   -4.248551   -1.769475
 H   -6.948180   -2.023725   -2.863579
 H   -5.532789   -0.128974   -2.142457
 H   -2.595159    1.690956    1.130074
 H   -5.449203   -2.389405    3.944243
 H   -5.003076   -3.891889    3.119495
 H   -5.966097   -2.671911    2.273279
 H   -1.835943    3.912053    0.284051
 H   -2.625523    3.584103   -1.269534
 H   -4.822272    3.538683   -0.205571
 H   -5.082190    4.286783    2.199079
 H   -3.332313    4.118953    2.413089
 H   -4.335792    2.696832    2.065234
 H   -3.889263    5.696308   -1.038131
 H   -3.209670    6.026769    0.566342
 H   -4.965506    5.957483    0.344321
 H    0.661881   -1.906303    0.391506
 H    2.960294   -2.502621   -0.333831
 H    4.902129   -1.873818   -1.775977
 H    5.241954   -0.180828   -2.130981
 H    5.413722   -1.449087    0.648854
 H    5.139343    0.875853    1.061159
 H    3.653088    1.573330   -1.467045
 H    1.363504    2.161426   -0.773390
 H   -3.004933   -0.415802    0.525335
 H   -0.792205    1.865544   -1.178439
 H    7.482403    1.288167    1.811901
 H    6.835414    1.421813   -1.101921
