28 
6f5w_ligand_ani.xyz
 O   -2.892813    0.610709   -0.135838
 C   -1.783595    0.509406    0.725715
 C   -0.689181    1.472809    0.269436
 C   -1.187937    2.893956    0.121702
 O   -0.149151    1.088994   -1.001865
 C   -1.241356   -0.910059    0.710589
 O   -2.311547   -1.787142    1.006971
 C   -0.675611   -1.243744   -0.665654
 O   -0.149493   -2.555780   -0.672515
 C    0.371915   -0.208460   -1.060010
 O    1.478844   -0.387089   -0.211841
 C    2.559843    0.482482   -0.515795
 C    3.664735    0.178280    0.395767
 C    4.574952   -0.069835    1.141326
 H   -3.437131   -0.169365    0.051558
 H   -2.069686    0.773027    1.759926
 H    0.111419    1.434802    1.028028
 H   -0.360205    3.544273   -0.173874
 H   -1.602559    3.258796    1.068638
 H   -1.969825    2.939369   -0.640793
 H   -0.442865   -1.004506    1.464970
 H   -2.019860   -2.664780    0.716042
 H   -1.491148   -1.218761   -1.392147
 H    0.716304   -2.492444   -0.240826
 H    0.696447   -0.367618   -2.099405
 H    2.866588    0.345045   -1.563457
 H    2.255149    1.531628   -0.404182
 H    5.378072   -0.296009    1.807781
