49 
6f6s_ligand_dft.xyz
 C    5.298824   -0.389671    0.038739
 N    3.904296   -0.865852   -0.166442
 C    3.058518   -0.893334    1.098910
 C    2.714978    0.593780    1.286780
 C    2.722753    1.197505   -0.142089
 C    3.064908    0.022620   -1.073069
 C    1.860296   -1.802414    0.806928
 C    0.989575   -1.297500   -0.351306
 C    1.864644   -0.813603   -1.526046
 O    0.198881   -0.247555    0.159907
 C   -1.002847    0.028570   -0.567670
 C   -2.072696   -1.009099   -0.288524
 C   -2.103384   -1.718342    0.912075
 C   -3.112921   -2.646281    1.155353
 C   -4.100340   -2.869811    0.200861
 C   -4.075033   -2.162848   -0.999212
 C   -3.064060   -1.240125   -1.242744
 C   -1.021189    2.489455   -1.071271
 C   -1.303363    3.812397   -0.742811
 C   -1.952607    4.104431    0.452836
 C   -2.320713    3.071519    1.312135
 C   -2.041227    1.750189    0.979966
 C   -1.384624    1.450517   -0.213823
 H    5.811336   -1.079864    0.710136
 H    5.806364   -0.359184   -0.926268
 H    5.280370    0.606392    0.478381
 H    3.952718   -1.807417   -0.563701
 H    3.670228   -1.306836    1.904015
 H    1.737163    0.695952    1.755102
 H    3.451461    1.081861    1.929726
 H    3.469598    1.989899   -0.234682
 H    1.751832    1.619746   -0.401442
 H    3.681899    0.308413   -1.928331
 H    2.219521   -2.817580    0.591985
 H    1.243674   -1.870044    1.706412
 H    0.345785   -2.117802   -0.694291
 H    1.267269   -0.206731   -2.212095
 H    2.217888   -1.673839   -2.110638
 H   -0.783413    0.005156   -1.645783
 H   -1.336240   -1.537424    1.659534
 H   -3.129590   -3.192029    2.093846
 H   -4.886689   -3.593626    0.389931
 H   -4.841904   -2.333591   -1.748216
 H   -3.049336   -0.689038   -2.180354
 H   -0.525709    2.263073   -2.013945
 H   -1.026414    4.611035   -1.423980
 H   -2.180134    5.134158    0.709940
 H   -2.836439    3.295265    2.240778
 H   -2.349294    0.947717    1.643684
