63 
6f7b_ligand_ani.xyz
 C   -3.417720   -1.211637   -0.067395
 C    1.009361    2.899864    2.763449
 C   -1.365821   -1.506390    0.886448
 C   -0.040953    0.505655    1.830644
 C   -0.173319   -0.870717    1.441098
 C    1.286423    0.597177    2.273136
 C   -0.875547    1.642534    1.878111
 C   -0.336443    2.822651    2.340826
 N   -1.427700   -2.832044    0.904672
 C   -3.611275   -2.614497   -0.034122
 C   -8.039013    1.288022   -1.160660
 O   -6.761698    0.704908   -0.986426
 C   -5.688189    1.538304   -1.047098
 C   -5.737958    2.903752   -1.294887
 N   -4.651744    3.678540   -1.372398
 C   -3.472825    3.087120   -1.205485
 C   -3.306919    1.727912   -0.945966
 C   -4.435325    0.929361   -0.838820
 N   -4.432198   -0.441335   -0.581151
 N   -2.304241   -0.671217    0.399286
 O   -4.806797   -3.061943   -0.495367
 C   -5.014800   -4.462828   -0.465608
 C   -2.564827   -3.377212    0.449088
 N    0.955142   -1.529527    1.635537
 C    1.838110    1.799085    2.739997
 N    1.828032   -0.652809    2.152610
 C    3.215271   -1.032731    2.356789
 C    4.111425   -0.574339    1.232674
 C    4.954599    0.531019    1.319054
 C    5.720058    0.998972    0.272223
 F    5.023266    1.189764    2.495562
 C    4.089334   -1.200382   -0.006768
 F    3.312119   -2.285967   -0.154429
 C    4.825920   -0.781921   -1.105796
 C    5.658753    0.327844   -0.951625
 O    6.421257    0.856195   -1.943379
 C    6.817901    0.058313   -3.048907
 C    5.972420    0.330980   -4.274439
 O    4.677378   -0.207762   -4.080993
 H    1.395388    3.850854    3.118414
 H   -1.910686    1.581886    1.558388
 H   -0.956365    3.714182    2.384648
 H   -8.234798    2.042607   -0.389632
 H   -8.127162    1.752168   -2.149956
 H   -8.759816    0.475184   -1.070646
 H   -6.691365    3.408079   -1.441570
 H   -2.599481    3.732767   -1.281439
 H   -2.318742    1.296933   -0.842036
 H   -5.308434   -0.917762   -0.761843
 H   -4.280364   -4.983082   -1.091214
 H   -4.955402   -4.846758    0.559333
 H   -6.016352   -4.626961   -0.861918
 H   -2.610042   -4.465468    0.487207
 H    2.877046    1.850893    3.046671
 H    3.212103   -2.124687    2.416440
 H    3.555579   -0.620728    3.309327
 H    6.357530    1.866819    0.395417
 H    4.701134   -1.287738   -2.054410
 H    6.803339   -1.008903   -2.792645
 H    7.851615    0.347257   -3.266554
 H    6.460205   -0.132561   -5.145852
 H    5.941217    1.417882   -4.433251
 H    4.071395    0.215058   -4.699409
