47 
6f7c_ligand_ani.xyz
 C    4.978910   -0.938037   -0.653886
 C   -1.689585    0.098198    0.918142
 C    4.299120   -1.918013   -1.424948
 C    2.960384   -1.801058   -1.681556
 C    2.064384    1.441605   -0.009817
 C    4.979350    1.123110    0.645309
 C    6.316762    0.965874    0.905198
 C    7.021553   -0.143285    0.387862
 C    6.364481   -1.070116   -0.372306
 C   -1.293630    2.533316    0.284655
 C   -2.111342    1.277443    0.305766
 N    0.786534    1.384083   -0.045325
 N    0.087120    2.461045    0.403718
 C    4.263819    0.184764   -0.149270
 C    2.242938   -0.692601   -1.188062
 C   -2.545911   -1.000643    0.940736
 C   -3.824396   -0.917749    0.376833
 C   -4.226202    0.265250   -0.260764
 C   -3.381592    1.370276   -0.265610
 C   -5.915708    1.404948   -1.451345
 C    2.864375    0.297577   -0.455871
 C   -4.539277   -2.895903   -0.609103
 C   -0.943235   -2.334103    2.047835
 O   -1.813543    3.630882    0.192244
 O   -2.223988   -2.207551    1.471690
 O   -4.681715   -1.974850    0.460937
 O   -5.451379    0.221684   -0.840508
 H   -0.713072    0.049914    1.378244
 H    4.863091   -2.768001   -1.803666
 H    2.442722   -2.556782   -2.267823
 H    2.574289    2.344799    0.339604
 H    4.463349    1.979143    1.070264
 H    6.839910    1.698990    1.513611
 H    8.081575   -0.254875    0.601216
 H    6.893580   -1.932506   -0.772883
 H    0.521042    3.380618    0.375167
 H    1.182382   -0.589410   -1.390383
 H   -3.674836    2.322744   -0.692527
 H   -5.984369    2.226223   -0.726239
 H   -5.260053    1.708034   -2.277579
 H   -6.908987    1.177115   -1.839358
 H   -4.752977   -2.409350   -1.569407
 H   -3.526489   -3.317466   -0.627345
 H   -5.264247   -3.694294   -0.434925
 H   -0.157689   -2.131151    1.308046
 H   -0.817973   -1.651004    2.898520
 H   -0.863009   -3.365086    2.395016
