53 
6f7i_ligand_dft.xyz
 C   -1.876044    0.637869   -0.574641
 C   -2.723122    1.729658   -0.382709
 C   -4.092763    1.530172   -0.334130
 C    2.967993   -0.167304   -0.761042
 C    4.042093    0.323725   -0.061685
 C    3.123296   -1.386786   -1.494861
 C    5.272255   -1.616086   -0.816007
 C    7.137087   -1.123402    0.216857
 C    6.565897   -2.086115   -0.612151
 C    4.096764    1.569445    0.793319
 C    3.691347    1.240576    2.230511
 C    0.519472   -0.047809   -0.722010
 C    3.564695    3.878196    0.590853
 C   -5.837649   -1.759370    1.305977
 C   -6.970680   -2.358970    2.143189
 C   -4.601123    0.234911   -0.465918
 N   -3.780256   -0.804994   -0.618568
 C   -2.463745   -0.630770   -0.679008
Cl   -5.119518    2.904312   -0.052819
 C   -6.083673   -0.054862   -0.547299
 O   -6.792330    0.552493   -1.338629
 N   -6.557025   -1.030767    0.258921
 N   -0.500348    0.886299   -0.646219
 N    4.225037   -2.089130   -1.520237
 N    5.185679   -0.426069   -0.105746
 N    6.326202   -0.114196    0.538816
Cl    8.742937   -1.134630    0.838442
 O    3.263193    2.555773    0.200101
 N    1.761265    0.553230   -0.795655
 O    0.343641   -1.251240   -0.739287
 C   -8.064105   -2.623499    1.101667
 C   -7.967341   -1.409626    0.174003
 H   -2.323740    2.733351   -0.266820
 H    2.277142   -1.767904   -2.054828
 H    7.006481   -2.986064   -1.007769
 H    5.135353    1.922873    0.781301
 H    2.666349    0.859065    2.260713
 H    4.366859    0.481515    2.634910
 H    3.760532    2.126711    2.868193
 H    3.356734    4.051079    1.654258
 H    2.930907    4.535009   -0.007361
 H    4.618104    4.113489    0.389350
 H   -5.193966   -1.087494    1.880654
 H   -5.204030   -2.536492    0.865422
 H   -6.657081   -3.257844    2.680003
 H   -7.321382   -1.626424    2.879066
 H   -1.852204   -1.513221   -0.809083
 H   -0.242231    1.860930   -0.693804
 H    1.866859    1.527841   -0.534212
 H   -9.058710   -2.733395    1.540898
 H   -7.836765   -3.540397    0.546359
 H   -8.238950   -1.625013   -0.862599
 H   -8.598240   -0.578756    0.513598
