73 
6f7q_ligand_dft.xyz
 C    6.860545   -2.640104   -0.226244
 C    4.460615   -2.512632    0.439981
 C    3.758267   -2.096953   -0.860221
 C    1.597462   -0.942373   -1.425546
 C    0.416585   -1.167780   -0.465471
 C    0.081046   -2.625502   -0.151094
 C   -1.089025   -2.670410    0.836445
 C   -2.304315   -1.898330    0.334248
 C   -3.098006    0.418998   -0.429161
 C   -3.946594   -0.180369   -1.566446
 C   -5.087839   -0.855426   -0.838940
 C   -5.997489   -1.786080   -1.323336
 C   -6.984144   -2.264585   -0.461993
 C   -7.056815   -1.814676    0.856305
 C   -6.143777   -0.877878    1.338977
 C   -5.160417   -0.405749    0.479494
 C   -4.069252    0.604099    0.752827
 C   -0.818039   -0.447973   -1.012748
 C    6.247828   -1.830492    2.017010
 C    3.519487    0.280204   -0.451667
 C    2.684079    1.532394   -0.396731
 C    0.798389    2.583786    0.370197
 C    1.091967    3.777547   -0.335727
 C    2.310062    3.801143   -1.059168
 C    3.113492    2.687144   -1.087002
 C   -0.401681    2.493707    1.131941
 C   -1.294262    3.529865    1.147080
 C   -1.000167    4.712816    0.422747
 C    0.163561    4.848386   -0.291536
 N    5.836259   -1.924312    0.586773
 N    2.914216   -0.900607   -0.766734
 N   -1.936535   -0.481647   -0.018965
 N    1.588098    1.482728    0.330584
 O    4.725049    0.353381   -0.199231
 O   -0.646225    1.327639    1.817544
 H    7.795320   -2.080420   -0.184406
 H    7.006689   -3.639669    0.187814
 H    6.528661   -2.709682   -1.262141
 H    4.574124   -3.598711    0.485213
 H    3.870041   -2.192532    1.301200
 H    4.487374   -1.973130   -1.671654
 H    3.104835   -2.920749   -1.150197
 H    1.463885   -0.001159   -1.964335
 H    1.630977   -1.724991   -2.190080
 H    0.691658   -0.664308    0.463702
 H    0.947282   -3.134986    0.285551
 H   -0.180387   -3.162537   -1.072847
 H   -1.405603   -3.700711    1.020470
 H   -0.772297   -2.263221    1.805546
 H   -2.722233   -2.351775   -0.567442
 H   -3.092948   -1.859455    1.085757
 H   -2.610474    1.356206   -0.706989
 H   -3.387195   -0.845156   -2.233940
 H   -4.311942    0.640997   -2.194094
 H   -5.948311   -2.136084   -2.350541
 H   -7.703781   -2.992918   -0.821128
 H   -7.831629   -2.196401    1.513031
 H   -6.207769   -0.526379    2.364772
 H   -4.464394    1.626568    0.722593
 H   -3.580095    0.491549    1.728391
 H   -0.600374    0.605608   -1.205199
 H   -1.180345   -0.905817   -1.938057
 H    5.554514   -1.169950    2.538631
 H    6.233171   -2.827224    2.461986
 H    7.254800   -1.415696    2.068305
 H    2.597921    4.701668   -1.593486
 H    4.051943    2.676850   -1.629327
 H   -2.202823    3.452987    1.735316
 H   -1.711437    5.531102    0.455506
 H    0.381612    5.767646   -0.825278
 H    5.718561   -0.952873    0.223034
 H   -1.557527   -0.018311    0.825892
 H    0.223954    0.915703    1.954980
