58 
6f8u_ligand_xtb.xyz
 C    4.211335    0.497970    1.142549
 C   -4.161194    2.810728    1.715516
 C   -4.852493    2.787775   -0.580885
 C   -5.951210   -1.215707    0.203088
 C    8.323071   -0.381016    0.802427
 C    4.257089   -1.973108    0.586503
 C    4.330378    1.301891   -1.230910
 N    4.880299    0.958345   -0.050992
 O    2.345507   -0.067488   -1.123535
 C    2.803273    1.255679   -1.335317
 N    0.966800   -0.097914   -0.976796
 O   -4.086615    0.532804   -0.542293
 C    6.322260    0.989024    0.101991
 O   -5.045125   -2.123089   -0.223911
 C    0.460535   -1.258819   -0.880488
 O    6.164726   -0.855344    1.660740
 C    6.833108   -0.403101    0.493264
 O    4.996366    1.677219   -2.176476
 C   -0.965933   -1.443128   -0.711602
 C   -1.824900   -0.344918   -0.674059
 C    4.756522   -0.888113    1.543106
 C   -3.197116   -0.495649   -0.530839
 C   -3.617169    1.875421   -0.451225
 C   -3.012050    2.184864    0.929194
 C   -4.855241    3.673524    0.666863
 C   -3.706833   -1.799124   -0.387047
 C   -2.852636   -2.891570   -0.425638
 C   -1.493710   -2.726272   -0.592573
 F   -7.095594   -1.890797    0.411995
 F   -5.612249   -0.680137    1.402093
 H    3.137621    0.430275    0.994736
 H    4.422193    1.209435    1.951757
 H   -4.836845    2.028473    2.062848
 H   -3.815085    3.383124    2.574055
 H   -5.739191    2.154428   -0.594493
 H   -4.832828    3.366638   -1.502171
 H   -6.163424   -0.385273   -0.490105
 H    8.652039   -1.376685    1.084896
 H    8.517511    0.293449    1.631851
 H    8.880470   -0.051393   -0.069216
 H    4.367587   -1.664757   -0.450012
 H    4.815724   -2.891306    0.750800
 H    3.204184   -2.162351    0.774784
 H    2.352335    1.940269   -0.605516
 H    2.538031    1.590757   -2.344840
 H    6.757213    1.312333   -0.843893
 H    6.580092    1.704380    0.891665
 H    1.077911   -2.157189   -0.923488
 H    6.638669   -1.097022   -0.338545
 H   -1.381553    0.631041   -0.772142
 H    4.415814   -1.119924    2.559057
 H   -2.902219    2.056178   -1.262389
 H   -2.624900    1.284455    1.403656
 H   -2.196088    2.899952    0.817737
 H   -4.271154    4.577494    0.486374
 H   -5.861552    3.966487    0.959224
 H   -3.288491   -3.871395   -0.317553
 H   -0.844556   -3.587399   -0.621062
