64 
6f8v_ligand_ani.xyz
 C    0.978548    0.728176   -0.625033
 C   -0.178948    1.580980   -0.322997
 C   -4.148264    1.463762   -1.462751
 C   -5.309848   -0.771687    1.399226
 C   -4.942723   -1.321118   -0.919661
 C   -1.666746    2.969460    0.528106
 C   -0.435007    2.413955    0.791416
 C   -2.405179   -1.659943   -0.712549
 C    4.321374   -2.440855   -2.635853
 O    4.286652   -1.637937   -1.475424
 C    3.171305   -0.890628   -1.255828
 C    3.207216   -0.058068   -0.118861
 O    4.279013   -0.067387    0.722070
 C    5.544707    0.374635    0.215668
 C    6.559507   -0.706151    0.542299
 C    6.752541   -0.570864    2.063530
 C    6.397465    0.901174    2.406732
 C    5.975133    1.554101    1.074555
 C    2.113859    0.731685    0.187138
 C    0.946557   -0.095065   -1.745990
 C    2.037980   -0.899996   -2.059241
 N   -1.199792    1.622190   -1.183398
 N   -2.071769    2.493625   -0.667581
 C   -3.327220    2.742033   -1.359041
 C   -4.682128    1.043055   -0.096677
 N   -5.100758   -0.255980    0.055821
 C   -4.155960   -1.706151    1.781168
 O   -4.004744   -2.729398    0.802604
 C   -3.795082   -2.259889   -0.526486
 O   -4.743729    1.848418    0.822273
 C   -4.385733   -2.400174    3.111632
 H   -4.996056    1.616898   -2.141107
 H   -3.515744    0.678472   -1.885918
 H   -6.250372   -1.339957    1.423734
 H   -5.380850    0.076370    2.084122
 H   -4.802710   -0.916482   -1.924345
 H   -5.870732   -1.906307   -0.925708
 H   -2.308232    3.637886    1.091475
 H    0.182372    2.574833    1.666351
 H   -2.222505   -1.414011   -1.766004
 H   -2.267379   -0.738709   -0.137138
 H   -1.648368   -2.379856   -0.386404
 H    3.537669   -3.209591   -2.616235
 H    4.210231   -1.834656   -3.544537
 H    5.300192   -2.921941   -2.637697
 H    5.473036    0.608784   -0.851949
 H    6.204968   -1.688191    0.225563
 H    7.493669   -0.489830    0.007113
 H    6.083555   -1.249747    2.597769
 H    7.773087   -0.832012    2.362882
 H    7.238195    1.434474    2.861928
 H    5.576211    0.928902    3.126505
 H    5.164597    2.280596    1.182926
 H    6.822073    2.063528    0.597389
 H    2.167630    1.362774    1.069821
 H    0.065834   -0.094530   -2.382111
 H    2.001091   -1.530592   -2.940974
 H   -3.872807    3.493720   -0.788933
 H   -3.099234    3.135551   -2.354040
 H   -3.229458   -1.109046    1.833332
 H   -3.869227   -3.164515   -1.144429
 H   -5.289797   -3.015459    3.058624
 H   -4.502727   -1.669688    3.919791
 H   -3.539639   -3.050627    3.349118
