58 
6f8w_ligand_xtb.xyz
 C    0.505484   -1.344151    0.514378
 C   -0.779877   -0.997654    1.097824
 C   -4.810186   -1.384277    0.096861
 C   -2.964219    0.107260   -1.751178
 C   -4.195424    2.123283   -1.266958
 C   -2.450041   -0.025988    2.169772
 C   -1.109985    0.113819    1.907140
 C    4.533892   -3.548612   -1.544502
 O    4.224316   -2.251941   -1.103232
 C    2.981194   -2.023143   -0.590978
 C    2.740407   -0.700584   -0.150842
 O    3.776017    0.162510   -0.323180
 C    3.606650    1.531513   -0.006462
 C    4.815086    2.279353   -0.600400
 C    5.348310    3.166865    0.522392
 C    5.055266    2.349587    1.776112
 C    3.652144    1.806238    1.513033
 C    1.513557   -0.382952    0.399816
 C    0.744930   -2.631744    0.059562
 C    1.974433   -2.967560   -0.483202
 N   -1.861981   -1.744579    0.898371
 N   -2.856253   -1.153594    1.553088
 C   -4.191267   -1.673916    1.472032
 C   -4.886118    0.121829   -0.110484
 N   -4.026882    0.709652   -0.973801
 C   -1.680456    0.939453   -1.609144
 O   -1.880231    2.294013   -1.931614
 C   -2.865547    2.853620   -1.093451
 O   -5.706396    0.775151    0.511159
 H   -5.837201   -1.752548    0.100258
 H   -4.252443   -1.900768   -0.679384
 H   -3.263521    0.082601   -2.807332
 H   -2.739853   -0.901686   -1.411365
 H   -4.953021    2.519867   -0.590530
 H   -4.532860    2.232923   -2.304742
 H   -3.128569    0.579771    2.736086
 H   -0.457673    0.885062    2.261958
 H    4.461230   -4.280380   -0.732500
 H    3.886579   -3.860773   -2.371304
 H    5.564247   -3.501896   -1.894061
 H    2.665258    1.889098   -0.445178
 H    4.548521    2.842849   -1.492342
 H    5.555549    1.527652   -0.874536
 H    4.795139    4.107440    0.554760
 H    6.406336    3.393090    0.402580
 H    5.108026    2.939122    2.690305
 H    5.763475    1.523832    1.850524
 H    3.447988    0.898880    2.079761
 H    2.904977    2.557277    1.774912
 H    1.318958    0.620114    0.741707
 H   -0.035794   -3.370305    0.142206
 H    2.136802   -3.978730   -0.821283
 H   -4.156451   -2.754009    1.639146
 H   -4.794792   -1.199834    2.249011
 H   -0.917096    0.563481   -2.291836
 H   -1.311455    0.854157   -0.577520
 H   -2.543950    2.791298   -0.042503
 H   -2.961642    3.900772   -1.383388
