59 
6f8x_ligand_ani.xyz
 C   -0.345910   -0.177216   -0.476711
 C    0.828673   -1.019346   -0.691081
 C    2.560881   -2.555322   -0.431849
 C    3.450749   -0.904223    1.330216
 C    5.824145    0.084715   -0.931890
 C    2.812277    1.956739    0.650802
 C   -3.740812    3.513605   -0.148394
 O   -3.735903    2.139713    0.174429
 C   -2.597293    1.437545   -0.072058
 C   -2.644201    0.064707    0.239480
 O   -3.761087   -0.498329    0.793374
 C   -4.959367   -0.504792    0.014882
 C   -6.107790    0.145772    0.777190
 C   -7.393442   -0.466422    0.175325
 C   -6.933923   -1.731816   -0.601009
 C   -5.459541   -1.927012   -0.215067
 C   -1.520373   -0.719110    0.053193
 C   -0.303515    1.177397   -0.796022
 C   -1.427293    1.979048   -0.591546
 C    1.100175   -2.344247   -0.027552
 C    3.614393   -2.258461    0.647420
 O    2.473629   -0.693833    2.036607
 N    4.395075    0.069873    1.120950
 O    2.724419   -1.654759   -1.556761
 N    1.767319   -0.657839   -1.500423
 C    4.004721    1.439824    1.459473
 C    5.722035   -0.165265    0.570603
 O    5.747421    1.456513   -1.240868
 O    3.033778    1.876018   -0.747510
 H    2.765045   -3.548696   -0.840285
 H    5.063778   -0.506390   -1.468209
 H    6.809400   -0.255412   -1.272075
 H    2.662362    3.016033    0.887845
 H    1.902171    1.414959    0.933726
 H   -3.560407    3.673155   -1.219825
 H   -2.989416    4.065941    0.431677
 H   -4.735817    3.878983    0.109429
 H   -4.793439    0.000653   -0.945437
 H   -5.999340   -0.141585    1.830141
 H   -6.063500    1.236612    0.726748
 H   -7.896449    0.232604   -0.501565
 H   -8.110995   -0.713227    0.964648
 H   -7.018590   -1.557079   -1.680104
 H   -7.545334   -2.610443   -0.372019
 H   -4.871257   -2.467885   -0.964626
 H   -5.377705   -2.472109    0.734310
 H   -1.582104   -1.767878    0.332395
 H    0.606490    1.632539   -1.181581
 H   -1.381009    3.031491   -0.846151
 H    0.951495   -2.310909    1.054384
 H    0.449403   -3.128832   -0.440637
 H    4.592317   -2.359550    0.177170
 H    3.533693   -3.013612    1.437739
 H    3.760802    1.497731    2.526963
 H    4.873291    2.076978    1.258940
 H    6.419689    0.516592    1.073929
 H    6.044441   -1.179321    0.826448
 H    4.813755    1.731743   -1.158653
 H    2.774890    0.983377   -1.045615
