52 
6f96_ligand_ani.xyz
 C   60.198692   24.260304   57.963806
 O   61.349137   24.932729   58.426693
 C   61.226281   25.662297   59.569027
 C   60.052786   25.787753   60.308189
 C   60.043848   26.560817   61.466219
 C   62.380812   26.314195   60.007964
 C   62.362971   27.091441   61.154441
 C   61.184401   27.237561   61.894184
 N   61.099827   27.973697   63.078526
 C   61.775414   29.119067   63.446683
 C   62.401156   29.948138   62.521389
 C   63.039520   31.096492   62.979387
 N   63.709218   31.977104   62.126742
 C   63.755571   31.959912   60.738394
 O   63.191131   31.134770   60.037551
 N   64.487422   33.004033   60.215451
 C   64.730303   33.046629   58.779450
 C   65.785149   32.055525   58.295490
 N   63.081058   31.467711   64.263057
 C   62.474833   30.667294   65.135642
 C   61.802268   29.492480   64.815960
 C   61.100039   28.676810   65.852058
 O   60.088773   28.025113   65.602298
 N   61.687909   28.681026   67.091029
 C   61.296852   27.964630   68.237173
 C   60.071146   27.315907   68.368906
 C   59.808663   26.662743   69.567318
 C   60.759410   26.675194   70.580435
 N   61.935332   27.295792   70.463132
 C   62.185058   27.921985   69.319593
 H   60.497403   23.743066   57.050969
 H   59.839993   23.526596   58.697813
 H   59.387225   24.963904   57.735321
 H   59.140202   25.286374   60.003775
 H   59.126155   26.647069   62.046798
 H   63.290484   26.202288   59.426650
 H   63.272858   27.588519   61.481338
 H   60.408686   27.678157   63.762642
 H   62.372445   29.759307   61.456226
 H   64.073666   32.779786   62.620943
 H   65.203595   33.406233   60.802335
 H   65.014518   34.073461   58.525896
 H   63.775464   32.838052   58.291255
 H   65.922643   32.142606   57.212403
 H   66.753025   32.233602   58.778059
 H   65.467917   31.032803   58.519078
 H   62.497889   31.022831   66.165868
 H   62.598621   29.111768   67.150876
 H   59.356885   27.322866   67.556507
 H   58.864887   26.143021   69.708063
 H   60.573290   26.168517   71.525141
 H   63.151165   28.423024   69.253859
