71 
6f9u_ligand_xtb.xyz
 C    2.079785   -2.070993   -0.978743
 N    0.786343   -2.060677   -0.662164
 C   -0.077323   -3.208805   -0.593769
 C   -1.707645   -1.838547    0.940726
 C   -4.049025   -2.454724    0.129605
 C   -2.592287   -1.305980   -1.479307
 C   -3.369746   -0.065500    0.538076
 C   -2.788890    2.303264    0.620558
 C   -0.482295    2.878184    1.483674
 C    1.695177    1.848351    1.607584
 C    6.458888   -0.984479   -0.116659
 C    5.064684   -0.423655    0.014595
 C    2.758365   -0.696414   -0.786962
 C    2.325073    0.362325   -1.821294
 C    0.970100    0.976265   -1.563024
 C   -0.955312   -3.157227    0.674706
 C   -2.888760   -1.443072    0.034959
 C   -4.583370   -2.604661   -1.292757
 C   -3.330922   -2.463465   -2.150330
 C   -1.952765    2.876002    1.796256
 C    0.354982    1.871125    1.944729
 C    2.221972    2.820310    0.761813
 C    1.394188    3.853285    0.322685
 C    0.066403    3.882044    0.692489
 C   -2.543377    3.139972   -0.616747
 C   -0.000138   -3.367450    1.837199
 N    4.181083   -0.930290   -0.866363
 N   -2.474093    0.926552    0.348696
 O    4.764819    0.440138    0.822328
 O    0.684003    1.968367   -2.369864
 O    0.196813    0.586869   -0.711368
 O    2.709438   -3.036823   -1.368989
 O   -4.457153    0.125684    1.042028
 O    3.501520    2.806625    0.335153
 O   -1.842344    2.816755   -1.548082
 O   -3.176946    4.304784   -0.575646
 O    0.732385   -2.529105    2.287476
 O   -0.035313   -4.622358    2.293095
 H    0.392177   -1.172570   -0.370710
 H   -0.709627   -3.268858   -1.483670
 H    0.552633   -4.104271   -0.573206
 H   -2.118461   -1.919847    1.952710
 H   -0.978992   -1.028576    0.973837
 H   -3.691926   -3.415419    0.498344
 H   -4.812010   -2.085553    0.813785
 H   -3.021599   -0.369361   -1.842369
 H   -1.529919   -1.281553   -1.702810
 H   -3.851648    2.355579    0.885374
 H    2.340238    1.071132    1.992056
 H    6.847705   -0.776407   -1.110844
 H    6.443057   -2.061526    0.032566
 H    7.104697   -0.524864    0.625631
 H    2.517826   -0.326897    0.216818
 H    3.052749    1.178637   -1.812056
 H    2.323324   -0.059774   -2.829313
 H   -1.642012   -4.005085    0.642300
 H   -5.276984   -1.793321   -1.515978
 H   -5.097563   -3.552091   -1.446281
 H   -2.747634   -3.384801   -2.099488
 H   -3.554267   -2.257976   -3.196554
 H   -2.303123    3.890202    1.995729
 H   -2.154413    2.255570    2.669816
 H   -0.042725    1.090708    2.577144
 H    1.814764    4.619433   -0.309636
 H   -0.553934    4.703379    0.361042
 H    4.418732   -1.761987   -1.396751
 H   -1.573914    0.756920   -0.083002
 H   -0.208806    2.335982   -2.165975
 H    3.966924    2.010214    0.667655
 H   -2.990548    4.837639   -1.366514
 H    0.607599   -4.748192    3.009747
