81 
6f9v_ligand_ani.xyz
 C   -5.872587   -2.373542   -1.317295
 C   -3.803998    0.339247    0.830064
 C   -3.473734    0.356193    2.331539
 C   -2.916213    1.710584    2.804921
 C   -1.940096    1.653983    3.989519
 C   -0.643686    0.848960    3.764450
 C   -2.528478    0.519338   -0.003966
 C   -1.499143    1.546834   -2.006789
 C   -0.176240    2.225027   -1.526480
 C    0.794506    1.234247   -0.871756
 C    2.288304    1.599915   -0.735215
 C    2.622607    2.965659   -0.095901
 C    4.117638    3.174362   -0.406885
 C    4.381014    2.396449   -1.723294
 C    3.027637    1.745728   -2.076729
 C    2.849094    0.489966    0.182190
 C    4.154721   -1.594405    0.330994
 C    3.607646   -2.932591   -0.223278
 C    2.098522   -3.012337   -0.168566
 C    1.313686   -2.483883   -1.197033
 C   -0.074748   -2.494687   -1.131129
 C   -0.708895   -3.057229   -0.019332
 C    0.059354   -3.610042    1.006613
 C    1.444490   -3.580693    0.924811
 C    5.668369   -1.579003    0.228712
 C   -0.561247    3.349549   -0.586160
 N   -4.411425   -0.960770    0.447854
 N   -0.071531    1.022529    2.409530
 N   -2.553480    1.433260   -0.998085
 N    3.647685   -0.451644   -0.382436
 O   -5.176397    0.116838   -1.739438
 O   -3.386174   -1.654929   -1.806200
 O   -1.539644   -0.159092    0.265296
 O    2.516175    0.440642    1.366304
 O   -2.053620   -3.055824    0.094190
 O    6.298184   -0.906660   -0.554669
 O    6.245267   -2.435278    1.086657
 O   -1.041080    4.409651   -1.246668
 O   -0.472463    3.334244    0.624602
 S   -4.626036   -1.124459   -1.220288
 H   -5.493413   -3.309710   -0.903068
 H   -6.745869   -2.034173   -0.757139
 H   -6.128791   -2.506426   -2.370351
 H   -4.536785    1.115002    0.589815
 H   -4.382429    0.094819    2.883865
 H   -2.752510   -0.449497    2.527861
 H   -3.754958    2.363110    3.077747
 H   -2.418425    2.222914    1.973313
 H   -1.671349    2.685613    4.254448
 H   -2.439447    1.236279    4.872910
 H   -0.828744   -0.218687    3.919665
 H    0.098651    1.151861    4.505740
 H   -1.275550    0.552160   -2.412264
 H   -1.915980    2.144189   -2.819177
 H    0.271340    2.683300   -2.415045
 H    0.432452    1.028530    0.133022
 H    0.744078    0.281674   -1.419142
 H    2.375165    2.994204    0.969305
 H    2.044726    3.747047   -0.601872
 H    4.354739    4.239571   -0.497734
 H    4.743548    2.780956    0.402119
 H    5.160719    1.640624   -1.579041
 H    4.725497    3.048624   -2.532668
 H    2.449429    2.436614   -2.701514
 H    3.105395    0.810394   -2.645619
 H    3.864690   -1.499389    1.381449
 H    3.953282   -3.053446   -1.258489
 H    4.057325   -3.745654    0.355666
 H    1.806315   -2.039633   -2.059973
 H   -0.680037   -2.055090   -1.924818
 H   -0.444309   -4.052766    1.861830
 H    2.026327   -4.019649    1.734898
 H   -3.823110   -1.736473    0.771249
 H   -0.162131    1.992449    2.076612
 H    0.928641    0.767115    2.361097
 H   -0.582493    0.411359    1.754189
 H   -3.465283    1.769172   -1.278106
 H    4.103744   -0.249425   -1.259725
 H   -2.415033   -2.576326   -0.685977
 H    7.203064   -2.375097    0.933005
 H   -1.287767    5.069063   -0.576137
