64 
6fa2_ligand_dft.xyz
 O    3.596516    2.700008   -0.658179
 C    2.706390    2.415600    0.127380
 C    1.258344    2.601165   -0.216858
 C    0.209849    2.410725    0.683190
 C   -1.108498    2.360574    0.247777
 C   -1.382921    2.490200   -1.113313
 O   -2.624145    2.346341   -1.670582
 C   -3.586264    1.542128   -1.029129
 C   -3.815093    0.208000   -1.727010
 N   -2.704221   -0.802138   -1.635278
 C   -1.597430   -0.551669   -2.603950
 C   -3.267075   -2.168272   -1.828430
 C   -0.352531    2.779285   -2.010515
 C    0.956257    2.830706   -1.561116
 N    2.953020    1.800313    1.329408
 C    4.130058    0.968316    1.472390
 C    3.918075   -0.409741    0.807131
 C    4.224207   -0.455041   -0.679904
 O    3.932450   -1.754597   -1.179889
 C    2.658198   -2.145721   -0.926268
 C    2.073434   -3.105404   -1.741758
 C    0.763373   -3.511045   -1.504929
 O    2.536631   -0.741674    1.020833
 C    1.942016   -1.592848    0.148233
 C    0.588302   -1.917878    0.324670
 C    0.027507   -2.905576   -0.495511
 C   -0.268841   -1.279773    1.353187
 N   -1.553117   -1.069169    1.000596
 C   -2.412184   -0.605429    1.904940
 O   -3.667389   -0.495042    1.406423
 C   -4.702935   -0.055039    2.277309
 C   -2.048031   -0.258033    3.204547
 C   -0.716137   -0.444482    3.554298
 C    0.184935   -0.965947    2.635805
 H    0.392356    2.305656    1.748579
 H   -1.893699    2.224580    0.982198
 H   -3.354757    1.362782    0.019961
 H   -4.537975    2.080354   -1.073647
 H   -4.690230   -0.253474   -1.263896
 H   -4.019094    0.356125   -2.791021
 H   -2.283744   -0.809893   -0.666865
 H   -0.832435   -1.314288   -2.451790
 H   -2.000578   -0.612217   -3.616923
 H   -1.169954    0.432189   -2.427156
 H   -3.897972   -2.406682   -0.971144
 H   -3.850143   -2.187168   -2.751455
 H   -2.447336   -2.881838   -1.895843
 H   -0.594985    2.927552   -3.057865
 H    1.773557    3.010432   -2.251404
 H    2.143440    1.379607    1.760080
 H    4.330010    0.835193    2.538175
 H    4.984829    1.479215    1.025703
 H    4.529389   -1.169044    1.308866
 H    3.648331    0.296820   -1.229698
 H    5.286037   -0.283372   -0.857680
 H    2.668357   -3.531033   -2.542704
 H    0.324438   -4.299124   -2.108219
 H   -0.988183   -3.223957   -0.285708
 H   -5.617837   -0.072395    1.685517
 H   -4.810498   -0.732499    3.130110
 H   -4.516961    0.965052    2.631199
 H   -2.761056    0.126272    3.922148
 H   -0.388344   -0.202403    4.560421
 H    1.214732   -1.154579    2.905133
