20 
6fba_ligand_ani.xyz
 O   63.632730   61.737873 -123.003308
 C   63.560959   60.450117 -123.419545
 C   64.491114   59.931320 -124.273424
 C   64.407282   58.577948 -124.704771
 C   65.364398   58.020720 -125.591881
 C   65.266471   56.715077 -125.995748
 C   64.204185   55.901885 -125.530883
 C   63.266784   56.416675 -124.673319
 C   63.345190   57.763822 -124.240378
 C   62.385455   58.325378 -123.349822
 C   62.490680   59.624445 -122.953582
 O   61.627828   60.266769 -122.102865
 H   62.883421   61.894852 -122.410117
 H   65.302936   60.562970 -124.624951
 H   66.178550   58.649843 -125.946096
 H   66.002904   56.293992 -126.675512
 H   64.139322   54.867836 -125.859754
 H   62.447897   55.797102 -124.312415
 H   61.568708   57.699510 -122.992497
 H   60.932187   59.655866 -121.829132
