48 
6fc6_ligand_ani.xyz
 N   -2.037498    1.774805   -1.221480
 C   -3.188956    1.252430   -0.382379
 C   -2.536564    0.285663    0.615863
 O   -2.092450    0.687704    1.678431
 C   -4.284754    0.653850   -1.248584
 N   -2.365408   -1.023205    0.213110
 C   -1.091672   -1.621567    0.554610
 C    0.040561   -0.916336   -0.228497
 O   -0.173609   -0.187689   -1.193609
 C   -1.109862   -3.118809    0.236722
 O   -1.473297   -3.208153   -1.135412
 C   -2.073547   -3.890294    1.126171
 N    1.288852   -1.153995    0.237723
 C    2.452103   -0.504635   -0.327517
 C    3.638061   -1.445754   -0.420528
 O    4.607162   -1.247067   -1.109845
 C    2.893650    0.754663    0.459529
 C    1.883607    1.878285    0.433245
 C    0.901795    1.994890    1.421416
 C    1.915803    2.837941   -0.583546
 C   -0.002202    3.053763    1.413149
 C    1.017838    3.900480   -0.595953
 C    0.056732    4.017612    0.407192
 O    3.535153   -2.511878    0.400257
 H   -2.370006    2.335955   -2.026486
 H   -1.464524    0.965398   -1.560560
 H   -1.414630    2.368385   -0.629194
 H   -3.575693    2.075545    0.217306
 H   -4.770728    1.436281   -1.840017
 H   -3.900236   -0.099317   -1.945272
 H   -5.048370    0.184858   -0.623992
 H   -2.661840   -1.270153   -0.723194
 H   -0.936530   -1.458739    1.625627
 H   -0.090528   -3.515312    0.377691
 H   -1.412894   -4.134684   -1.400093
 H   -2.068263   -4.954740    0.866045
 H   -1.776312   -3.799691    2.176323
 H   -3.089755   -3.503089    1.014003
 H    1.424613   -1.814158    0.988534
 H    2.197122   -0.198701   -1.345178
 H    3.109008    0.458743    1.493954
 H    3.841069    1.091489    0.023683
 H    0.846843    1.249881    2.211687
 H    2.664730    2.768039   -1.370086
 H   -0.771665    3.111813    2.178752
 H    1.068549    4.642394   -1.388930
 H   -0.657551    4.838696    0.386807
 H    4.356743   -3.018545    0.283189
