48 
6fc6_ligand_xtb.xyz
 N   -2.299509    1.471603   -1.119949
 C   -3.343399    0.744749   -0.329743
 C   -2.481163   -0.049922    0.681044
 O   -2.116066    0.472308    1.706598
 C   -4.225444   -0.066610   -1.260408
 N   -2.077270   -1.262802    0.257660
 C   -0.754864   -1.722289    0.614963
 C    0.239781   -0.810502   -0.127260
 O   -0.140606   -0.047871   -1.015594
 C   -0.599969   -3.187098    0.162377
 O   -0.981600   -3.201864   -1.199011
 C   -1.461138   -4.115422    1.013177
 N    1.505989   -0.892617    0.257874
 C    2.549754   -0.078405   -0.325798
 C    3.873537   -0.829030   -0.407503
 O    4.833946   -0.408444   -0.980062
 C    2.764688    1.222022    0.484263
 C    1.535037    2.083404    0.426750
 C    0.637140    2.117882    1.485571
 C    1.270666    2.841037   -0.709947
 C   -0.506604    2.895145    1.417725
 C    0.127452    3.613338   -0.788307
 C   -0.777220    3.631261    0.271022
 O    3.849561   -1.988752    0.256625
 H   -2.670217    1.820050   -2.007376
 H   -1.478128    0.804235   -1.286268
 H   -1.870837    2.265408   -0.576709
 H   -3.938943    1.471706    0.229692
 H   -4.874804    0.592779   -1.832564
 H   -3.639236   -0.656335   -1.961937
 H   -4.860186   -0.735281   -0.685853
 H   -2.372734   -1.621473   -0.641008
 H   -0.611465   -1.627004    1.693893
 H    0.458778   -3.475316    0.256794
 H   -0.968449   -4.109302   -1.522481
 H   -1.382222   -5.137336    0.649497
 H   -1.130075   -4.093865    2.046847
 H   -2.502977   -3.808620    0.971035
 H    1.783644   -1.522118    0.996697
 H    2.239073    0.190162   -1.341977
 H    3.001755    0.965091    1.518083
 H    3.617202    1.744466    0.047999
 H    0.835221    1.549890    2.381528
 H    1.974004    2.837644   -1.528577
 H   -1.184398    2.920814    2.255422
 H   -0.056701    4.213626   -1.666916
 H   -1.638284    4.286283    0.237803
 H    4.714105   -2.429174    0.201276
