31 
6fcj_ligand_ani.xyz
 C   64.822147   34.702565   23.386150
 C   64.703586   33.887447   24.601848
 N   65.867047   36.012719   21.871556
 C   65.821102   33.357135   25.258626
 C   63.441799   33.590247   25.130520
 C   64.805644   35.451607   21.310643
 C   68.145866   36.124890   23.680330
 C   66.449536   36.720615   25.280835
 C   65.709628   32.582996   26.396680
 C   63.309168   32.822585   26.286519
 C   69.128034   36.594922   24.538004
 C   67.435441   37.195540   26.139969
 C   64.441520   32.319421   26.916509
 N   65.861157   35.578447   23.145603
 C   64.101034   34.637673   22.212161
 C   66.801449   36.142293   24.051273
 C   68.772577   37.125334   25.774458
Cl   64.790758   36.885188   25.773715
 O   62.352403   34.088074   24.490947
 O   64.371562   31.561547   28.040672
 H   66.805270   33.565419   24.850045
 H   64.585803   35.659755   20.272738
 H   68.401228   35.730944   22.701863
 H   66.580944   32.177433   26.898809
 H   62.317328   32.612184   26.690974
 H   70.170807   36.552675   24.235622
 H   67.142880   37.622867   27.095253
 H   63.207733   34.055331   22.049875
 H   69.535821   37.496304   26.451974
 H   61.560566   33.868810   24.999437
 H   63.446162   31.455032   28.296394
