30 
6fdq_ligand_ani.xyz
 C  -24.608677   50.261097   39.087392
 C  -23.632728   50.474401   40.063634
 C  -27.098789   46.503310   38.522741
 C  -21.315404   52.651215   38.363908
 C  -26.409289   45.974911   39.616293
 C  -25.962684   44.657909   39.597015
 C  -26.195930   43.854737   38.483814
 C  -26.878251   44.375250   37.389100
 C  -27.326926   45.692801   37.411206
 N  -22.563376   51.227532   39.860493
 C  -22.479832   51.801300   38.655642
 N  -23.362239   51.700233   37.650777
 C  -24.418432   50.928625   37.875172
 C  -25.771019   49.388924   39.416451
 O  -26.076518   49.143457   40.575329
 N  -26.461626   48.894824   38.346697
 C  -27.551241   47.949664   38.544243
 N  -20.381673   52.865666   39.191968
 H  -23.735831   50.007902   41.041797
 H  -21.352499   53.075135   37.348031
 H  -26.227147   46.605430   40.483377
 H  -25.431181   44.256440   40.456144
 H  -25.845628   42.825254   38.470166
 H  -27.064651   43.754964   36.515570
 H  -27.862103   46.099745   36.554975
 H  -25.150187   50.873110   37.066465
 H  -25.983294   48.854399   37.458836
 H  -27.992106   48.193091   39.514133
 H  -28.306665   48.129153   37.772469
 H  -19.697072   53.481521   38.754162
