30 
6fdq_ligand_xtb.xyz
 C    1.414636    0.700730   -0.052979
 C    2.058813   -0.002828   -1.069478
 C   -3.111689    0.210869   -0.441103
 C    5.164400   -0.998857    0.465186
 C   -3.963785   -0.642250   -1.127614
 C   -4.809869   -1.492025   -0.435308
 C   -4.803766   -1.501151    0.948574
 C   -3.952098   -0.655147    1.640157
 C   -3.110724    0.196946    0.948932
 N    3.249354   -0.542351   -0.901762
 C    3.839344   -0.377189    0.280027
 N    3.332812    0.310425    1.299393
 C    2.140522    0.843032    1.133073
 C    0.073149    1.342252   -0.182237
 O   -0.197998    2.376458    0.393153
 N   -0.785801    0.688390   -0.996431
 C   -2.159747    1.120617   -1.173979
 N    5.790055   -1.665690   -0.395336
 H    1.624114   -0.123145   -2.055008
 H    5.613338   -0.850666    1.441293
 H   -3.971966   -0.637513   -2.208639
 H   -5.473503   -2.148680   -0.978274
 H   -5.462904   -2.164917    1.487936
 H   -3.946643   -0.657485    2.720006
 H   -2.448762    0.862731    1.483275
 H    1.732000    1.405848    1.962277
 H   -0.549690   -0.228930   -1.340654
 H   -2.213551    2.135865   -0.771519
 H   -2.390051    1.141079   -2.243345
 H    5.291542   -1.751271   -1.283118
