49 
6fe0_ligand_dft.xyz
 F    0.483308   -1.237229   -1.616286
 C   -0.565459   -0.619896   -1.055562
 C   -1.725903   -1.353726   -0.867477
 S   -1.819756   -3.062306   -1.344820
 C   -1.732048   -3.831865    0.306954
 C   -0.379496   -3.645241    0.977200
 O   -0.446937   -4.310232    2.220910
 C   -2.830333   -0.701154   -0.316089
 F   -3.978596   -1.347107   -0.112846
 C   -0.400867    0.732584   -0.675959
 C   -1.551120    1.355079   -0.130278
 S   -1.554534    3.027436    0.529868
 O   -1.803709    2.934541    1.951118
 N   -2.843352    3.808373   -0.146948
 O   -0.380335    3.711911    0.004787
 C   -2.732228    0.626600    0.035869
 F   -3.815955    1.220542    0.560388
 N    0.797596    1.372128   -0.860909
 C    2.111454    0.744758   -0.619122
 C    2.158430   -0.017358    0.727349
 C    2.864262   -1.380614    0.677927
 C    4.216326   -1.441461   -0.037467
 C    5.358965   -0.612077    0.554453
 C    5.196014    0.918462    0.556634
 C    4.621165    1.529647   -0.736787
 C    3.129419    1.890148   -0.715553
 H   -1.920636   -4.896465    0.140794
 H   -2.533454   -3.444322    0.940751
 H   -0.175368   -2.570831    1.106217
 H    0.409155   -4.059371    0.331365
 H    0.385341   -4.164426    2.684347
 H   -3.737618    3.407041    0.111492
 H   -2.733845    3.970182   -1.141811
 H    0.763458    2.346764   -0.585220
 H    2.303337    0.046977   -1.437007
 H    1.132907   -0.196943    1.071662
 H    2.605742    0.626024    1.491583
 H    2.195117   -2.086402    0.170201
 H    2.982811   -1.747279    1.706717
 H    4.080341   -1.171891   -1.092337
 H    4.537709   -2.490540   -0.050082
 H    6.262891   -0.854688   -0.019878
 H    5.555020   -0.946705    1.581938
 H    6.188779    1.346035    0.738935
 H    4.586977    1.236891    1.409758
 H    4.831847    0.874111   -1.591982
 H    5.154032    2.463640   -0.947743
 H    2.948314    2.582209    0.120445
 H    2.903641    2.445488   -1.634293
