51 
6fe1_ligand_ani.xyz
 F   14.443705    4.970676   14.215156
 C   15.773159    4.971564   14.395654
 C   16.352330    4.008748   15.206478
 S   15.433434    2.789068   16.092420
 O   14.112994    2.666866   15.512115
 N   16.264409    1.406188   15.679473
 O   15.625484    3.051672   17.506508
 C   17.722999    4.070911   15.402042
 F   18.336693    3.199963   16.205306
 C   18.476451    5.044771   14.766174
 F   19.799299    5.034514   14.986911
 C   16.498307    5.983028   13.748837
 C   17.899536    5.989373   13.929115
 S   18.994108    7.183317   13.199531
 O   19.775948    7.808115   14.256532
 O   18.249424    8.031496   12.258231
 C   20.112893    6.186402   12.210108
 C   19.426767    5.643104   10.970926
 O   18.366200    4.813548   11.394228
 N   15.874333    6.915398   12.964984
 C   14.641975    7.599046   13.318859
 C   14.653908    8.166122   14.752407
 C   15.843924    9.045031   15.135355
 C   16.028761   10.344004   14.340536
 C   14.753619   11.196631   14.201080
 C   14.003848   11.087605   12.866677
 C   13.370101    9.743430   12.487407
 C   14.373974    8.619391   12.192420
 H   16.903394    1.118955   16.412708
 H   15.611730    0.676164   15.415781
 H   20.499081    5.392481   12.853196
 H   20.932801    6.864971   11.954817
 H   20.169579    5.082487   10.383880
 H   19.067445    6.483597   10.364564
 H   17.788460    4.635990   10.644001
 H   16.531705    7.463801   12.422185
 H   13.829044    6.869116   13.296388
 H   13.720226    8.718579   14.912291
 H   14.612307    7.314310   15.444422
 H   16.771773    8.456496   15.082932
 H   15.719167    9.306506   16.193695
 H   16.454284   10.135460   13.350929
 H   16.799798   10.927560   14.859054
 H   15.023313   12.253004   14.324883
 H   14.071868   10.972668   15.033329
 H   14.699017   11.371533   12.061291
 H   13.215872   11.852547   12.859945
 H   12.773979    9.914398   11.583004
 H   12.646891    9.432026   13.252204
 H   14.040897    8.038681   11.322085
 H   15.325783    9.072687   11.885944
