41 
6fe5_ligand_ani.xyz
 O    1.079242    2.617309   -0.390057
 C    1.752348    1.992468    0.568543
 O    1.289582    1.769786    1.673785
 C    3.126286    1.555273    0.109713
 C    3.048470    0.515016   -1.022298
 C    2.480027   -0.855648   -0.580107
 C    3.515884   -1.580697    0.253310
 O    3.513946   -1.639442    1.458985
 O    4.487377   -2.107709   -0.507379
 N    1.263781   -0.751411    0.181784
 C    0.082758   -0.486925   -0.468497
 O   -0.084467   -0.749293   -1.655780
 N   -0.893357    0.065587    0.336429
 C   -2.178068    0.407521   -0.227373
 C   -2.419994    1.908523   -0.166864
 O   -3.644544    2.247152   -0.572738
 O   -1.615784    2.750900    0.180428
 C   -3.340071   -0.379285    0.405377
 C   -3.142606   -1.898742    0.394951
 C   -3.023431   -2.457322   -1.024123
 C   -4.296882   -2.571775    1.138334
 H    0.163692    2.784818   -0.069313
 H    3.664644    1.168459    0.978876
 H    3.661174    2.438508   -0.255740
 H    4.046271    0.350491   -1.441605
 H    2.412329    0.905859   -1.822264
 H    2.268535   -1.445836   -1.476448
 H    5.126670   -2.510841    0.103289
 H    1.352738   -0.498035    1.157071
 H   -0.574508    0.574846    1.153560
 H   -2.113664    0.159506   -1.293788
 H   -3.699630    3.215730   -0.508061
 H   -3.474418   -0.042853    1.442808
 H   -4.262018   -0.117872   -0.127006
 H   -2.209688   -2.120094    0.930421
 H   -3.918485   -2.215960   -1.613758
 H   -2.147178   -2.062827   -1.551719
 H   -2.931500   -3.549012   -0.997033
 H   -5.251731   -2.370433    0.635181
 H   -4.161701   -3.658505    1.176033
 H   -4.375647   -2.205246    2.168256
