59 
6few_ligand_ani.xyz
 C   -3.890342   -5.051703   17.240305
 C   -4.054602   -3.670606   16.613670
 C   -3.877862   -8.312291   16.491620
 C   -4.221248   -6.418101   15.181582
 C   -4.612041   -8.912440   19.134489
 C   -5.544755   -8.326788   21.285239
 C   -5.637623   -6.765846   19.435950
 C   -5.165812   -1.170276   17.833145
 C   -4.610086   -1.662226   18.995608
 C   -3.900324   -0.772370   19.839266
 C   -4.384770    1.099061   18.299726
 C   -3.198412   -0.879909   21.035452
 C   -6.299171   -4.177274   15.815153
 C   -6.258260   -5.587182   16.395582
 C   -4.813839   -6.093682   16.567175
 N   -5.466707   -3.289434   16.622354
 N   -4.757615   -7.415073   17.223312
 N   -3.800551   -7.720510   15.170929
 O   -4.095375   -5.655541   14.241846
 C   -4.992014   -7.674289   18.579038
 C   -4.886816   -9.228726   20.458909
 C   -5.913786   -7.095261   20.757994
 C   -5.946274   -2.026001   16.878260
 O   -6.963477   -1.607179   16.343994
 C   -3.774877    0.605521   19.489658
 C   -5.072311    0.217581   17.512236
 N   -2.736928    0.357323   21.300224
 N   -3.059770    1.287361   20.396244
 C   -2.728403   -8.088523   14.272976
 C   -1.376443   -7.522731   14.739822
 O   -1.206589   -7.074310   15.864218
 N   -0.379407   -7.588467   13.823421
 C    0.923449   -7.015625   14.098460
 H   -4.125701   -4.995460   18.305805
 H   -2.854567   -5.396052   17.149013
 H   -3.697908   -3.699190   15.576426
 H   -3.457837   -2.928923   17.146332
 H   -4.315512   -9.316897   16.421864
 H   -2.887696   -8.378108   16.967386
 H   -4.082986   -9.642586   18.533569
 H   -5.761679   -8.575816   22.319629
 H   -5.919892   -5.781274   19.086006
 H   -4.730771   -2.700958   19.277757
 H   -4.297440    2.149507   18.052221
 H   -3.002502   -1.717406   21.692213
 H   -5.936884   -4.185368   14.780523
 H   -7.311593   -3.773402   15.822469
 H   -6.764762   -5.588883   17.363268
 H   -6.805407   -6.282772   15.751182
 H   -4.577814  -10.198426   20.844314
 H   -6.421837   -6.366933   21.384063
 H   -5.569747    0.561316   16.610022
 H   -2.183940    0.637691   22.098589
 H   -2.967825   -7.711470   13.273652
 H   -2.668135   -9.183508   14.213846
 H   -0.594085   -7.869381   12.881194
 H    1.657575   -7.450773   13.416552
 H    0.926337   -5.924612   13.985471
 H    1.205647   -7.248801   15.126777
