46 
6ffe_ligand_xtb.xyz
 C   -0.810177    0.664864   -1.482521
 C    2.292510    0.262157   -0.130367
 C    2.766742    1.971950    1.510811
 C    4.124898    1.717223    1.409451
 C    4.569718    0.740230    0.543047
 C    3.669534    0.007450   -0.233336
 C   -4.562147   -1.756113   -0.892316
 C   -3.992702   -0.372650   -1.102375
 O   -4.512138    0.421589   -1.865042
 N   -2.848500   -0.055004   -0.434604
 C   -2.115084    1.137512   -0.832712
 N   -0.089591   -0.226098   -0.605591
 C    1.281275   -0.506144   -0.947163
 C    1.867203    1.249310    0.749130
 C    4.196248   -1.021463   -1.152881
 O    5.516903   -1.231072   -1.012200
 O    3.553907   -1.641063   -1.968093
 C   -0.741486   -0.917973    0.381927
 C   -0.044720   -1.673308    1.329745
 C   -0.709767   -2.334655    2.343535
 C   -2.084245   -2.233193    2.465780
 C   -2.792000   -1.474516    1.550078
 C   -2.147481   -0.850859    0.493176
 C   -1.890980    2.059273    0.355270
 C   -1.546929    3.502066    0.134976
 C   -2.759578    3.270149    0.537328
 H   -1.051113    0.162802   -2.432615
 H   -0.177766    1.530851   -1.705406
 H    2.405991    2.734454    2.185312
 H    4.831697    2.277376    2.002471
 H    5.623978    0.532037    0.453038
 H   -5.319881   -1.732973   -0.112254
 H   -5.050918   -2.053785   -1.817396
 H   -3.793678   -2.475854   -0.626395
 H   -2.722394    1.655554   -1.582331
 H    1.431900   -0.264796   -2.004541
 H    1.476694   -1.579589   -0.855535
 H    0.811763    1.450983    0.839045
 H    5.801966   -1.911364   -1.641880
 H    1.030837   -1.731358    1.283496
 H   -0.143708   -2.916028    3.055901
 H   -2.602130   -2.724947    3.274268
 H   -3.857991   -1.355190    1.659126
 H   -1.513764    1.548448    1.239253
 H   -0.779946    4.173547   -0.161945
 H   -3.729265    3.604047    0.808940
