46 
6ffe_ligand_ani.xyz
 C   -0.744637    0.975315   -1.290134
 C    2.437629    0.160905    0.166895
 C    3.008533    0.756959    2.453031
 C    4.360257    0.763264    2.129117
 C    4.755872    0.458676    0.834748
 C    3.810583    0.150222   -0.149764
 C   -4.919035   -1.189359   -1.143427
 C   -4.184635    0.072166   -0.741526
 O   -4.772861    1.138809   -0.702644
 N   -2.812142    0.012690   -0.513150
 C   -2.096000    1.285531   -0.678575
 N    0.006106    0.022376   -0.486608
 C    1.391568   -0.153472   -0.898337
 C    2.063370    0.453221    1.479458
 C    4.286664   -0.195404   -1.518653
 O    5.632494   -0.124376   -1.635437
 O    3.602823   -0.515942   -2.468323
 C   -0.694370   -1.070150    0.044629
 C   -0.011538   -2.142395    0.631731
 C   -0.686929   -3.170687    1.273786
 C   -2.074334   -3.125915    1.364665
 C   -2.772163   -2.072917    0.792113
 C   -2.109981   -1.060252    0.092017
 C   -2.004933    2.074977    0.619229
 C   -2.031025    3.569069    0.644494
 C   -3.110301    2.976901    1.033752
 H   -0.919030    0.582746   -2.306732
 H   -0.154963    1.893791   -1.380735
 H    2.685422    0.986284    3.465063
 H    5.106443    1.000374    2.882617
 H    5.808645    0.454143    0.569961
 H   -5.550752   -1.529856   -0.316209
 H   -5.581733   -0.928539   -1.970755
 H   -4.247662   -1.992316   -1.451195
 H   -2.674217    1.872735   -1.391390
 H    1.568820    0.508943   -1.748801
 H    1.558495   -1.167141   -1.285209
 H    1.010585    0.431404    1.746462
 H    5.825234   -0.370508   -2.554741
 H    1.075131   -2.146256    0.613339
 H   -0.130662   -3.993738    1.713529
 H   -2.620052   -3.909792    1.880517
 H   -3.847934   -2.033585    0.913314
 H   -1.426474    1.550637    1.390768
 H   -1.457616    4.467273    0.468707
 H   -4.132655    2.990088    1.375534
