59 
6fff_ligand_ani.xyz
 C    3.361483    0.682225    1.392965
 C    0.433775    2.605973    0.463337
 C    0.474893    3.487800   -1.799827
 C   -0.844481    3.904661   -1.671233
 C   -1.510161    3.700427   -0.467140
 C   -0.884655    3.078015    0.614240
 C    5.738256   -2.488198    0.127247
 C    4.246548   -2.630460    0.339371
 O    3.732412   -3.711053    0.560211
 N    3.503304   -1.460330    0.273461
 C    4.105893   -0.124249    0.331367
 N    1.941968    0.718788    1.109278
 C    1.140048    1.830919    1.578465
 C    1.107154    2.846448   -0.737669
 C   -1.660206    2.931994    1.913641
 O   -2.106272    1.605372    2.167478
 C    1.324232   -0.426225    0.628379
 C   -0.064688   -0.510357    0.557796
 C   -0.702011   -1.528314   -0.142208
 C    0.068554   -2.556260   -0.691641
 C    1.444438   -2.550758   -0.539118
 C    2.092259   -1.507753    0.133946
 C   -2.168056   -1.441965   -0.283726
 C   -2.789060   -0.200828   -0.442151
 N   -4.108847   -0.044542   -0.448420
 C   -4.825593   -1.155511   -0.338293
 N   -4.348540   -2.400657   -0.223299
 C   -3.028199   -2.535046   -0.198781
 C   -6.332428   -0.991500   -0.344943
 N   -7.001127   -2.166001   -0.227011
 O   -6.860337    0.097593   -0.446963
 C    4.084003    0.556207   -1.025866
 C    5.265373    0.593487   -1.934577
 C    4.991548    1.700157   -1.330763
 H    3.560279    0.231330    2.379731
 H    3.752768    1.707025    1.410208
 H    1.013618    3.654450   -2.728819
 H   -1.349725    4.399500   -2.496408
 H   -2.539956    4.034624   -0.353333
 H    6.211903   -2.068040    1.020850
 H    6.149256   -3.480354   -0.055036
 H    5.947801   -1.826902   -0.718751
 H    5.138606   -0.223630    0.661306
 H    1.811554    2.498274    2.133498
 H    0.392807    1.471916    2.299498
 H    2.142460    2.527486   -0.848608
 H   -1.027718    3.199506    2.767188
 H   -2.515289    3.622827    1.911688
 H   -2.845973    1.407403    1.573285
 H   -0.686211    0.210246    1.076310
 H   -0.405080   -3.364391   -1.243625
 H    2.023063   -3.365569   -0.953215
 H   -2.198327    0.710275   -0.585408
 H   -2.638044   -3.545621   -0.076104
 H   -6.494941   -3.034834   -0.145444
 H   -8.008287   -2.144579   -0.220945
 H    3.079253    0.525359   -1.467597
 H    5.839945    0.023749   -2.647247
 H    5.198998    2.738508   -1.123785
