61 
6ffg_ligand_xtb.xyz
 C   -2.635228    1.239872   -1.068035
 C    0.602450    2.562812   -0.320248
 C    0.876532    3.316130    1.956104
 C    2.167636    3.723902    1.671664
 C    2.670561    3.557516    0.393811
 C    1.901046    2.986709   -0.611663
 C   -5.503713   -1.576087   -0.787650
 C   -4.040438   -1.960445   -0.785177
 O   -3.675185   -3.056285   -1.149217
 N   -3.154374   -1.006046   -0.347370
 C   -3.492009    0.389363   -0.120200
 N   -1.237212    1.000677   -0.824459
 C   -0.280100    1.933128   -1.377088
 C    0.104703    2.741133    0.963708
 C    2.485256    2.843348   -1.994936
 O    2.736539    1.468647   -2.272592
 C   -0.836342   -0.261589   -0.468416
 C    0.514625   -0.554405   -0.304192
 C    0.960297   -1.817575    0.079737
 C    0.013036   -2.804082    0.344026
 C   -1.333314   -2.527308    0.204837
 C   -1.780082   -1.283020   -0.214189
 C    2.400855   -2.054542    0.196483
 C    3.284692   -1.383706   -0.547262
 C    4.770159   -1.515463   -0.409061
 N    5.107562   -2.143542    0.897688
 C    4.337583   -3.403444    1.067068
 C    2.865190   -3.055664    1.227171
 C   -3.274524    0.755781    1.342992
 C   -3.994640    1.928059    1.941063
 C   -4.434285    0.758966    2.296176
 H   -2.850415    2.298655   -0.896557
 H   -2.908920    0.994694   -2.107166
 H    0.469471    3.449419    2.946992
 H    2.778569    4.176940    2.437614
 H    3.674949    3.886203    0.167972
 H   -6.074772   -2.476226   -0.999988
 H   -5.714778   -0.848111   -1.568677
 H   -5.811753   -1.175670    0.174755
 H   -4.538140    0.566203   -0.370759
 H   -0.836566    2.727158   -1.884829
 H    0.338431    1.424259   -2.124058
 H   -0.901988    2.421365    1.182996
 H    3.425129    3.407656   -2.053474
 H    1.789548    3.258163   -2.736282
 H    3.017993    1.393876   -3.190583
 H    1.240145    0.224790   -0.451322
 H    0.300891   -3.802037    0.632429
 H   -2.052725   -3.301696    0.407075
 H    2.964641   -0.679959   -1.296713
 H    5.187445   -2.135999   -1.209004
 H    5.237498   -0.529504   -0.467835
 H    4.824361   -1.497220    1.643843
 H    6.115644   -2.310831    0.970460
 H    4.708636   -3.945911    1.938208
 H    4.491401   -4.014403    0.176116
 H    2.669263   -2.651817    2.225065
 H    2.281399   -3.971074    1.140317
 H   -2.288637    0.483612    1.712536
 H   -4.037611    2.987837    1.984275
 H   -5.101467    0.146786    2.849714
