72 
6ffs_ligand_ani.xyz
 C   -1.162059    1.287417   -0.722261
 C   -1.723723    2.720837   -0.789031
 C   -3.614375   -1.597447   -1.190305
 C   -4.982664   -1.805682   -0.530888
 C   -2.725130   -2.852652   -1.277246
 C   -2.365492   -3.636130    0.005123
 C   -1.768844   -2.826641    1.149985
 C   -3.083356    2.827893   -0.140194
 C   -4.244052    2.912348   -0.911513
 C   -5.504894    2.945359   -0.322347
 C   -5.587504    2.891518    1.058975
 C   -4.460873    2.805815    1.861549
 C   -3.211601    2.769049    1.250183
 C    0.510377   -3.794707    0.791725
 C    1.025860   -3.123215   -0.483575
 C    1.680175   -1.760502   -0.253957
 N    0.115876    1.174041   -1.396992
 C    1.277301    1.145616   -0.691888
 O    1.356640    1.591644    0.443767
 C    2.443958    0.419901   -1.369297
 N    3.609623    0.606553   -0.540955
 C    2.085442   -1.071196   -1.558683
 C    4.852544    0.401738   -1.026517
 C   -2.097524    0.293119   -1.415757
 N   -2.916558   -0.446748   -0.620622
 O   -2.073004    0.187073   -2.636255
 O   -4.995029   -2.472541    0.707558
 O   -2.464278   -2.007419    1.761128
 N   -0.475434   -3.015957    1.536018
 F   -6.801049    2.924491    1.642043
 C    5.950889    0.708882   -0.069580
 O    5.088437   -0.003645   -2.157243
 N    5.707481    1.168008    1.134532
 O    6.938222    1.329343    1.721184
 C    7.903647    0.961648    0.859163
 C    7.339410    0.556509   -0.306038
 C    9.309079    1.071320    1.335403
 C   -0.030159   -2.203911    2.664531
 H   -1.012242    1.027401    0.332678
 H   -0.991335    3.366328   -0.289421
 H   -1.772438    3.024229   -1.840722
 H   -3.814889   -1.303720   -2.226487
 H   -5.596908   -2.419424   -1.203602
 H   -5.466102   -0.817447   -0.457200
 H   -3.223535   -3.563220   -1.950793
 H   -1.807297   -2.542738   -1.794897
 H   -3.273741   -4.102889    0.402563
 H   -1.689395   -4.443011   -0.278959
 H   -4.158834    2.947801   -1.996300
 H   -6.413679    3.013011   -0.913509
 H   -4.573116    2.764865    2.940791
 H   -2.318272    2.692534    1.868931
 H    0.098842   -4.783543    0.561310
 H    1.351089   -3.970360    1.473129
 H    1.739831   -3.805704   -0.965473
 H    0.190105   -3.009073   -1.187289
 H    2.563643   -1.857276    0.391772
 H    0.978973   -1.109145    0.284379
 H    0.070247    0.773399   -2.324447
 H    2.633236    0.848491   -2.361097
 H    3.453803    1.009130    0.377491
 H    2.943951   -1.568324   -2.021131
 H    1.259236   -1.132087   -2.281706
 H   -2.767910   -0.442108    0.381804
 H   -4.266442   -2.123567    1.253545
 H    7.817888    0.199596   -1.205437
 H    9.454429    0.494882    2.253280
 H    9.988942    0.690095    0.571248
 H    9.570320    2.113497    1.542374
 H   -0.228425   -1.141887    2.475925
 H    1.043416   -2.349555    2.820244
 H   -0.567360   -2.478827    3.578281
