59 
6fil_ligand_xtb.xyz
 C   -3.836498   -4.630298   17.052883
 C   -4.170453   -3.306985   16.360719
 C   -3.627329   -7.959830   16.490286
 C   -4.004005   -6.133830   15.097983
 C   -4.272234   -8.376218   19.188638
 C   -5.209990   -7.672319   21.288129
 C   -5.417292   -6.283530   19.332708
 C   -5.415575   -1.537834   18.230908
 C   -5.301330   -1.788682   19.572400
 C   -4.545320   -0.897888   20.352066
 C   -4.082030    0.493478   18.371024
 C   -4.191495   -0.804553   21.694925
 C   -6.311618   -4.078096   15.602538
 C   -6.133076   -5.469063   16.213152
 C   -4.644142   -5.798539   16.444936
 N   -5.597694   -3.094627   16.387689
 N   -4.477805   -7.032986   17.200780
 N   -3.491640   -7.373957   15.186302
 O   -3.965518   -5.434753   14.108018
 C   -4.711472   -7.207541   18.552213
 C   -4.519207   -8.599421   20.529268
 C   -5.656286   -6.516477   20.672925
 C   -6.253586   -2.443368   17.382122
 O   -7.454689   -2.550680   17.553728
 C   -3.930677    0.250043   19.747656
 C   -4.812950   -0.397043   17.639792
 N   -3.444880    0.306718   21.802272
 N   -3.266875    0.960997   20.664799
 C   -2.684508   -7.958666   14.155029
 C   -1.188227   -7.874723   14.493165
 O   -0.777462   -7.491578   15.565949
 N   -0.391880   -8.285854   13.487098
 C    1.049010   -8.277090   13.581923
 H   -4.052583   -4.544415   18.117668
 H   -2.771397   -4.848736   16.944413
 H   -3.853809   -3.348255   15.314729
 H   -3.652635   -2.486792   16.858798
 H   -4.103368   -8.952019   16.408045
 H   -2.637337   -8.070934   16.964522
 H   -3.731286   -9.128259   18.638446
 H   -5.399677   -7.848022   22.335733
 H   -5.798421   -5.369787   18.910004
 H   -5.777716   -2.646807   20.022728
 H   -3.629486    1.364705   17.925278
 H   -4.415330   -1.428574   22.535628
 H   -5.915641   -4.058954   14.584651
 H   -7.368572   -3.806846   15.596304
 H   -6.679930   -5.517093   17.152761
 H   -6.558049   -6.221372   15.545392
 H   -4.163123   -9.513004   20.983285
 H   -6.204866   -5.778977   21.241020
 H   -4.958662   -0.239108   16.580714
 H   -3.025496    0.673542   22.644436
 H   -2.885334   -7.389353   13.242217
 H   -2.968223   -9.006663   14.006687
 H   -0.799079   -8.559446   12.607286
 H    1.449851   -9.278230   13.415959
 H    1.481058   -7.590822   12.851831
 H    1.307843   -7.944586   14.585441
