100 
6fjm_ligand_xtb.xyz
 C    2.230747   -1.635347    3.603412
 C    2.626165   -1.138523    2.388886
 C    0.517460   -1.418356    2.325912
 C   -0.844228   -1.458671    1.903511
 C   -1.884401   -1.827976    2.677601
 C   -3.222804   -1.791034    2.182976
 C   -4.305737   -2.161901    2.890434
 C   -5.667086   -2.102165    2.404790
 C   -6.226079   -1.123513    1.688891
 C   -5.610062    0.184482    1.315156
 C   -5.451435    0.305721   -0.206167
 C   -5.227410    1.740461   -0.733117
 C   -4.106535    2.542897   -0.021891
 C   -4.925571    1.679314   -2.237035
 C   -6.526299    2.523706   -0.543568
 C   -2.778942    1.843152   -0.005399
 C   -1.761759    2.211968   -0.767936
 C   -0.411611    1.581543   -0.768796
 C   -4.656849   -1.534508   -1.457705
 C   -3.463956   -2.316097   -1.818730
 C   -1.440843   -2.929990   -2.041087
 C   -3.452762   -3.479971   -2.544355
 C   -0.017508   -3.055312   -2.015020
 C    0.763696   -2.117952   -1.441927
 C    2.187657   -2.122939   -1.296130
 C    3.038381   -3.060355   -1.758304
 C    4.461530   -3.113335   -1.515824
 C    5.341559   -2.124385   -1.324446
 C    5.115926   -0.649156   -1.402472
 C    5.152106   -0.023853   -0.000666
 C    5.206551    1.530888    0.017988
 C    6.508750    2.076726   -0.660055
 C    3.929833    2.127068   -0.572437
 C    5.325063    1.884862    1.504063
 C    6.456288    2.136499   -2.161690
 C    7.380895    1.622103   -2.956239
 C    7.366302    1.724169   -4.442971
 C    3.980966   -0.792770    1.932630
 C   -7.551843    4.603568   -0.814043
 C    4.200484    2.192863    3.522154
 N    1.518758   -1.005973    1.599376
 N   -2.173539   -1.988641   -1.509138
 O    0.903184   -1.813947    3.570940
 O   -4.374403   -0.533921   -0.628470
 O   -4.557958    2.850032    1.287855
 O   -5.756225   -1.795425   -1.885760
 O   -2.181659   -3.873370   -2.683026
 O    3.955615   -0.430532    0.656507
 O    7.632605    1.344573   -0.253457
 O    4.968032   -0.842722    2.627317
 O   -7.551994    2.075802   -0.105924
 O   -6.399303    3.784595   -0.960818
 O    6.379600    2.051515    2.068409
 O    4.149894    1.977510    2.116932
 H    2.767258   -1.886437    4.494534
 H   -1.014322   -1.170561    0.876710
 H   -1.721297   -2.138147    3.701763
 H   -3.336846   -1.452882    1.163510
 H   -4.174592   -2.586300    3.880010
 H   -6.289035   -2.939029    2.701965
 H   -7.258588   -1.230401    1.383046
 H   -6.282749    0.983122    1.630415
 H   -4.648656    0.322414    1.803620
 H   -6.371948   -0.064490   -0.679237
 H   -4.000659    3.483162   -0.589185
 H   -3.950956    1.222989   -2.396028
 H   -5.680804    1.084858   -2.747331
 H   -4.919824    2.680385   -2.660210
 H   -2.678977    1.028215    0.695266
 H   -1.890744    3.029610   -1.468348
 H    0.360432    2.348264   -0.714704
 H   -0.290250    0.898991    0.067308
 H   -0.263491    1.031075   -1.697814
 H   -4.234957   -4.070816   -2.972697
 H    0.375555   -3.947332   -2.478640
 H    0.260306   -1.267232   -1.008132
 H    2.568827   -1.314788   -0.695317
 H    2.645334   -3.908608   -2.306195
 H    4.857640   -4.123420   -1.508571
 H    6.369708   -2.397739   -1.121514
 H    5.923240   -0.202920   -1.983441
 H    4.160589   -0.427062   -1.873490
 H    6.017946   -0.411161    0.553000
 H    6.602163    3.123943   -0.311158
 H    3.815196    1.832962   -1.610894
 H    3.962601    3.212975   -0.513049
 H    3.068492    1.769239   -0.014711
 H    5.633891    2.704898   -2.570454
 H    8.210063    1.084022   -2.519683
 H    6.496448    2.276101   -4.790943
 H    7.354719    0.729230   -4.887293
 H    8.266782    2.228198   -4.791563
 H   -7.297410    5.567283   -1.247559
 H   -8.401728    4.157838   -1.334444
 H   -7.803349    4.711298    0.242565
 H    4.685223    1.341980    4.005773
 H    3.168944    2.288490    3.850572
 H    4.765783    3.099472    3.745171
 H   -3.827632    3.250922    1.771609
 H    7.706222    1.453521    0.707694
