56 
6fmi_ligand_dft.xyz
 C   -2.842611    4.580962   -0.383944
 C   -2.847317    3.112476   -0.029679
 O   -1.806044    2.481840    0.131832
 N   -4.069584    2.530761    0.090600
 C   -4.189829    1.086103    0.175763
 C   -5.665071    0.694198    0.239876
 C   -3.553398    0.458000   -1.077825
 O   -3.736644    0.979891   -2.166332
 N   -2.788731   -0.661668   -0.909609
 C   -2.380382   -1.409680   -2.097308
 C   -2.953039   -2.796752   -1.817275
 O   -4.364687   -2.801433   -1.934046
 C   -2.625841   -2.969571   -0.341819
 C   -2.826143   -1.556118    0.262857
 C   -1.799187   -1.239948    1.355501
 S   -1.585719   -2.321413    2.610083
 N   -1.185990   -0.072624    1.223214
 C   -0.188468    0.482498    2.125470
 C    1.194817    0.362307    1.528844
 C    1.629498    1.289988    0.581072
 C    2.878861    1.160384   -0.011826
 C    2.031150   -0.700451    1.870167
 C    3.286621   -0.824050    1.287985
 C    3.731135    0.107306    0.342319
 C    5.063352   -0.010575   -0.275085
 S    5.651073   -1.528344   -0.886852
 C    7.113716   -0.738065   -1.360222
 N    7.170232    0.529043   -1.096457
 C    6.014044    0.957672   -0.478226
 C    5.921739    2.397282   -0.068985
 H   -3.766810    5.089965   -0.097586
 H   -2.709588    4.676928   -1.466611
 H   -1.993380    5.060641    0.105104
 H   -4.859081    3.027598   -0.296146
 H   -3.677380    0.765065    1.085468
 H   -6.145974    1.150099    1.110010
 H   -5.775019   -0.391504    0.311310
 H   -6.177805    1.019271   -0.671501
 H   -2.781842   -0.920130   -2.985641
 H   -1.287082   -1.442880   -2.174345
 H   -2.494938   -3.575213   -2.441565
 H   -4.595344   -2.531129   -2.831051
 H   -3.263084   -3.710153    0.140558
 H   -1.586726   -3.285737   -0.218527
 H   -3.808827   -1.506689    0.739491
 H   -1.429255    0.532052    0.440781
 H   -0.260904   -0.046647    3.077256
 H   -0.449362    1.533893    2.275976
 H    0.970812    2.106216    0.292742
 H    3.195386    1.872770   -0.767500
 H    1.693006   -1.434137    2.596493
 H    3.937709   -1.643204    1.580752
 H    7.913963   -1.287293   -1.842267
 H    5.153039    2.547522    0.693028
 H    6.885755    2.727608    0.327164
 H    5.682708    3.036451   -0.926931
