56 
6fmi_ligand_xtb.xyz
 C   -2.822975    4.542480    0.124495
 C   -2.913825    3.052382    0.327304
 O   -2.016030    2.386710    0.817167
 N   -4.090249    2.501767   -0.040901
 C   -4.210786    1.055501   -0.100490
 C   -5.598608    0.658063   -0.584417
 C   -3.154110    0.548639   -1.101566
 O   -2.900402    1.205930   -2.093962
 N   -2.525732   -0.604124   -0.817308
 C   -1.629397   -1.215696   -1.778588
 C   -2.187813   -2.638465   -1.916487
 O   -3.267269   -2.698396   -2.820473
 C   -2.739827   -2.939532   -0.516327
 C   -2.797803   -1.584824    0.215579
 C   -1.764792   -1.477542    1.339896
 S   -1.251044   -2.813507    2.150957
 N   -1.375934   -0.246451    1.649995
 C   -0.320401    0.046279    2.595733
 C    1.003907    0.089630    1.876000
 C    1.235242    1.081426    0.929284
 C    2.420515    1.115556    0.222227
 C    1.969816   -0.884413    2.085936
 C    3.157670   -0.852008    1.382863
 C    3.407486    0.154846    0.450346
 C    4.667434    0.181193   -0.271561
 S    5.465722   -1.303419   -0.714865
 C    6.728264   -0.354385   -1.425441
 N    6.573967    0.912901   -1.330654
 C    5.426482    1.249449   -0.688392
 C    5.144278    2.696006   -0.463565
 H   -3.743865    5.032186    0.430104
 H   -2.651578    4.740545   -0.932436
 H   -1.987029    4.937950    0.694138
 H   -4.711619    3.033908   -0.629653
 H   -4.019349    0.673876    0.907468
 H   -6.361835    1.062252    0.077101
 H   -5.693298   -0.424555   -0.610342
 H   -5.759417    1.037131   -1.591724
 H   -1.649998   -0.643431   -2.706408
 H   -0.611185   -1.234915   -1.376937
 H   -1.404492   -3.348171   -2.213725
 H   -2.973215   -2.418201   -3.693941
 H   -3.729614   -3.379081   -0.620636
 H   -2.102764   -3.632850    0.031042
 H   -3.784004   -1.431995    0.661231
 H   -1.678222    0.559249    1.102203
 H   -0.314698   -0.729692    3.364451
 H   -0.543127    1.017411    3.043539
 H    0.473408    1.824531    0.743015
 H    2.572292    1.872151   -0.530878
 H    1.788338   -1.674538    2.798850
 H    3.906980   -1.611094    1.555351
 H    7.566934   -0.824125   -1.898947
 H    4.570328    2.841545    0.448348
 H    6.089801    3.227656   -0.392973
 H    4.587097    3.112964   -1.302478
