56 
6fmi_ligand_ani.xyz
 C   -0.903324    4.359221   -1.090438
 C   -1.695295    3.283480   -0.374349
 O   -1.532079    3.016571    0.807796
 N   -2.629965    2.656443   -1.149206
 C   -3.416173    1.546547   -0.663307
 C   -4.917990    1.840437   -0.751650
 C   -3.078210    0.331835   -1.537535
 O   -2.921506    0.482642   -2.740317
 N   -2.980748   -0.905474   -0.955092
 C   -2.935398   -2.087694   -1.823386
 C   -3.691094   -3.148168   -1.020399
 O   -5.096018   -3.012469   -1.167803
 C   -3.367097   -2.776666    0.419979
 C   -3.402901   -1.236543    0.409524
 C   -2.514489   -0.649605    1.514651
 S   -3.134598   -0.334567    3.023115
 N   -1.247647   -0.438265    1.167906
 C   -0.281518    0.235696    2.029182
 C    1.104931    0.092889    1.467598
 C    1.697612    1.116218    0.729475
 C    2.971465    0.960439    0.198359
 C    1.809946   -1.099094    1.643238
 C    3.079296   -1.263208    1.109846
 C    3.686267   -0.228866    0.384706
 C    5.033737   -0.400959   -0.181974
 S    5.492884   -1.851598   -1.006917
 C    7.048408   -1.171125   -1.283610
 N    7.234066    0.015137   -0.794814
 C    6.098001    0.464371   -0.156759
 C    6.127206    1.808612    0.500829
 H   -1.565920    5.161929   -1.428279
 H   -0.384525    3.954743   -1.966117
 H   -0.169829    4.771484   -0.397458
 H   -2.529419    2.681822   -2.156390
 H   -3.149618    1.401876    0.380625
 H   -5.143107    2.758577   -0.202407
 H   -5.505404    1.021305   -0.319105
 H   -5.223937    1.969093   -1.795454
 H   -3.417632   -1.862805   -2.777340
 H   -1.899479   -2.389020   -2.020474
 H   -3.367709   -4.166427   -1.273708
 H   -5.310734   -3.087395   -2.106199
 H   -4.082490   -3.201806    1.124973
 H   -2.362295   -3.126213    0.680019
 H   -4.423802   -0.889035    0.605745
 H   -1.001326   -0.608356    0.199417
 H   -0.359816   -0.216238    3.024687
 H   -0.562698    1.291555    2.114228
 H    1.155818    2.045875    0.575667
 H    3.416963    1.766947   -0.378672
 H    1.354110   -1.911548    2.204886
 H    3.616184   -2.194709    1.266834
 H    7.806884   -1.722206   -1.827255
 H    5.407730    1.861159    1.322681
 H    7.129334    2.010256    0.884422
 H    5.886755    2.602066   -0.217326
