56 
6fmj_ligand_dft.xyz
 C   -0.616703    2.362896   -0.169382
 C    0.844802    2.157384   -0.494028
 O    1.218078    1.667309   -1.554043
 N    1.726956    2.496722    0.482546
 C    3.164369    2.356581    0.312389
 C    3.892674    2.866503    1.557190
 C    3.634842    0.941099   -0.059122
 S    4.920748    0.820492   -1.113200
 N    3.020480   -0.115269    0.494597
 C    2.005951   -0.126452    1.558546
 C    2.101405   -1.527584    2.197565
 O    2.253138   -1.357726    3.591579
 C    3.291930   -2.200157    1.500741
 C    3.336648   -1.503508    0.148512
 C    2.271902   -2.088342   -0.804751
 O    1.973236   -3.275555   -0.742901
 N    1.710497   -1.210144   -1.661078
 C    0.570671   -1.566104   -2.483414
 C   -0.736164   -1.143371   -1.843808
 C   -1.604865   -0.259675   -2.479179
 C   -2.795852    0.128564   -1.874937
 C   -1.080361   -1.623899   -0.576944
 C   -2.256153   -1.219893    0.041188
 C   -3.138345   -0.341146   -0.603306
 C   -4.381718    0.086954    0.059459
 S   -4.848711    1.761810    0.105522
 C   -6.256530    1.313633    1.004502
 N   -6.376116    0.048201    1.251893
 C   -5.319980   -0.663435    0.720973
 C   -5.313243   -2.153288    0.887825
 H   -1.052299    1.397823    0.112381
 H   -1.132308    2.699627   -1.069889
 H   -0.786114    3.078722    0.639901
 H    1.378838    2.875098    1.350166
 H    3.465504    2.967879   -0.541294
 H    4.970123    2.798954    1.394309
 H    3.644352    2.282648    2.450098
 H    3.635820    3.914835    1.741223
 H    1.010130    0.046521    1.140274
 H    2.213953    0.626608    2.318371
 H    1.181374   -2.087610    1.979911
 H    2.267188   -2.233187    3.996390
 H    4.204599   -1.972783    2.060555
 H    3.176458   -3.278970    1.390515
 H    4.313649   -1.545323   -0.335725
 H    1.920485   -0.218666   -1.598095
 H    0.597004   -2.650278   -2.620276
 H    0.684040   -1.091853   -3.462118
 H   -1.346571    0.137335   -3.456919
 H   -3.467924    0.805056   -2.395936
 H   -0.417367   -2.326711   -0.078731
 H   -2.495325   -1.581043    1.037114
 H   -6.975131    2.059398    1.323264
 H   -5.013174   -2.432373    1.904452
 H   -4.628851   -2.632777    0.183988
 H   -6.321061   -2.545117    0.726041
