57 
6fng_ligand_ani.xyz
 F -109.258861  -11.641367   51.109742
 C -108.569476  -11.751739   52.262431
 F -107.363773  -11.191622   52.041643
 F -109.199241  -10.999452   53.180472
 C -108.438096  -13.188115   52.688123
 C -107.807725  -14.071697   51.817550
 C -108.934835  -13.605482   53.916831
 C -108.794574  -14.942033   54.278647
 C -108.168248  -15.837526   53.422964
 C -107.670800  -15.408434   52.187624
 N -107.054373  -16.367379   51.357800
 C -106.448283  -16.173702   50.142005
 O -106.354092  -15.089271   49.588789
 C -105.858351  -17.408067   49.521756
 C -104.830327  -17.224077   48.596618
 C -106.293081  -18.703972   49.795803
 C -105.683309  -19.787504   49.175554
 C -104.628594  -19.622013   48.274010
 C -103.969855  -20.809035   47.623506
 C -104.221624  -18.309996   47.981154
 N -103.170387  -18.094797   47.033442
 C -101.880516  -17.768428   47.361908
 N -101.105518  -17.373588   46.349910
 C -101.325708  -17.851639   48.670239
 C -101.701744  -18.175961   49.970533
 N -100.606172  -18.018156   50.732253
 C -100.545310  -18.253251   52.159310
 N  -99.526787  -17.612813   50.065865
 C  -99.948209  -17.502261   48.802107
 N  -99.186611  -17.107692   47.761266
 C  -99.813576  -17.066188   46.602684
 C  -99.016000  -16.633196   45.429048
 C  -97.672390  -16.292316   45.562766
 C  -96.974328  -15.894176   44.432563
 C  -97.647509  -15.853042   43.215545
 N  -98.932948  -16.175726   43.068844
 C  -99.594893  -16.556949   44.160214
 H -107.419928  -13.737542   50.863070
 H -109.422383  -12.894023   54.575769
 H -109.175722  -15.289886   55.233945
 H -108.067577  -16.880925   53.713945
 H -106.949715  -17.280532   51.771429
 H -104.516777  -16.210175   48.358571
 H -107.131823  -18.886837   50.465300
 H -106.026147  -20.795739   49.404968
 H -102.901357  -20.847105   47.856311
 H -104.431506  -21.740004   47.966328
 H -104.059811  -20.762145   46.532886
 H -103.423371  -17.719769   46.126812
 H -102.641353  -18.491126   50.406032
 H  -99.529293  -18.031875   52.487600
 H -101.256212  -17.605074   52.682195
 H -100.791544  -19.296178   52.384202
 H  -97.191460  -16.340593   46.535191
 H  -95.925306  -15.620014   44.493576
 H  -97.128812  -15.545000   42.309766
 H -100.641782  -16.817796   44.029583
