57 
6fni_ligand_xtb.xyz
 C    2.582001    0.746349    2.856849
 C    1.237312    0.552747    2.238730
 C    0.947466   -0.547524    1.422552
 C   -0.347686   -0.752263    0.966070
 C   -1.359634    0.157988    1.240203
 C   -1.065462    1.279005    2.011769
 C    0.212118    1.452650    2.506996
 C   -2.722237   -0.153881    0.725578
 O   -3.111340   -1.291328    0.575525
 N   -3.464788    0.962003    0.430275
 C   -4.772877    1.038983   -0.033199
 C   -5.280478    2.297692   -0.362058
 C   -6.575696    2.437923   -0.818014
 C   -7.394792    1.329721   -0.955080
 C   -6.890582    0.080880   -0.621665
 C   -5.590535   -0.080264   -0.166583
 C   -7.746254   -1.144264   -0.780347
 F   -9.058078   -0.863841   -0.843736
 F   -7.596389   -2.017744    0.226903
 F   -7.456854   -1.820644   -1.909751
 N    1.926588   -1.500332    1.093531
 C    3.094025   -1.226323    0.455901
 N    3.401293    0.029286    0.170866
 C    4.555284    0.316688   -0.443072
 N    5.481366   -0.547106   -0.828380
 C    5.173412   -1.814723   -0.557534
 C    3.988583   -2.253844    0.086781
 C    4.132466   -3.657286    0.137291
 N    5.267490   -4.022233   -0.408522
 N    5.900024   -2.917141   -0.827977
 C    7.174216   -2.989957   -1.479848
 C    4.802555    1.735360   -0.708800
 C    3.816647    2.694787   -0.470507
 N    3.990516    3.984696   -0.682718
 C    5.159936    4.389729   -1.151779
 C    6.208891    3.526237   -1.435636
 C    6.027406    2.174339   -1.208598
 H    2.992038   -0.207263    3.185086
 H    3.271664    1.167191    2.125861
 H    2.517859    1.420638    3.706920
 H   -0.586556   -1.625876    0.376629
 H   -1.834955    1.989010    2.278880
 H    0.422320    2.303907    3.137812
 H   -2.990102    1.850874    0.509212
 H   -4.649416    3.169228   -0.258242
 H   -6.952712    3.417022   -1.069563
 H   -8.407918    1.432084   -1.309440
 H   -5.213261   -1.058196    0.083712
 H    1.603819   -2.455259    1.020001
 H    3.468453   -4.394348    0.543841
 H    7.090948   -2.653484   -2.514844
 H    7.894713   -2.356356   -0.961335
 H    7.501282   -4.026925   -1.454292
 H    2.847024    2.394759   -0.097059
 H    5.254897    5.456761   -1.306716
 H    7.142889    3.905188   -1.821474
 H    6.805702    1.453042   -1.405461
