57 
6fni_ligand_dft.xyz
 C    2.585483    1.346371    2.851266
 C    1.251021    1.046932    2.229685
 C    0.982472   -0.171001    1.583431
 C   -0.279918   -0.440484    1.069027
 C   -1.310682    0.489997    1.175579
 C   -1.042048    1.724881    1.767053
 C    0.220576    1.987135    2.282782
 C   -2.638845    0.099152    0.595479
 O   -2.730072   -0.766402   -0.258789
 N   -3.717368    0.771361    1.119831
 C   -5.074405    0.655029    0.773368
 C   -5.989939    1.422481    1.502850
 C   -7.345639    1.364375    1.215961
 C   -7.813752    0.543099    0.196359
 C   -6.899711   -0.217287   -0.525130
 C   -5.535708   -0.174363   -0.251437
 C   -7.380462   -1.066943   -1.672616
 F   -8.647646   -1.479126   -1.491293
 F   -6.622254   -2.160778   -1.842155
 F   -7.353048   -0.384650   -2.831722
 N    1.978352   -1.181920    1.483928
 C    3.114193   -1.064165    0.733409
 N    3.390006    0.104699    0.172464
 C    4.522400    0.240683   -0.550756
 N    5.429012   -0.696063   -0.796922
 C    5.125868   -1.871763   -0.227198
 C    3.999815   -2.151977    0.559140
 C    4.153996   -3.515537    0.925097
 N    5.259026   -4.016308    0.411936
 N    5.847804   -3.015168   -0.288372
 C    7.094481   -3.233588   -0.983715
 C    4.763079    1.590433   -1.118551
 C    3.829966    2.619258   -0.952045
 N    3.994170    3.855343   -1.424771
 C    5.118576    4.107944   -2.098408
 C    6.110202    3.158088   -2.329097
 C    5.928824    1.876988   -1.829471
 H    3.024309    0.445461    3.291021
 H    3.286852    1.710881    2.094056
 H    2.487765    2.105286    3.632313
 H   -0.477643   -1.378461    0.559030
 H   -1.795050    2.507549    1.804930
 H    0.415103    2.948670    2.749662
 H   -3.529664    1.367512    1.911391
 H   -5.636230    2.069626    2.302318
 H   -8.041522    1.963761    1.794122
 H   -8.872426    0.489852   -0.029693
 H   -4.836031   -0.778723   -0.810656
 H    1.673852   -2.125393    1.673507
 H    3.518920   -4.144139    1.534691
 H    7.370242   -2.296248   -1.468597
 H    7.871688   -3.527604   -0.274488
 H    6.971234   -4.017413   -1.734589
 H    2.906835    2.421415   -0.414368
 H    5.231114    5.123078   -2.473775
 H    7.003018    3.421585   -2.886569
 H    6.668666    1.097463   -1.976496
