57 
6fni_ligand_ani.xyz
 C  -81.580183  -22.329288   85.066257
 C  -82.336650  -21.216293   85.738856
 C  -82.423860  -19.934620   85.171664
 C  -83.151713  -18.932393   85.799670
 C  -83.806868  -19.167718   87.005386
 C  -83.710218  -20.429556   87.590289
 C  -82.989056  -21.432041   86.956413
 C  -84.560254  -18.014384   87.604922
 O  -84.282909  -16.862570   87.306046
 N  -85.570353  -18.364247   88.463894
 C  -86.461521  -17.516678   89.153053
 C  -87.471589  -18.109555   89.917316
 C  -88.370447  -17.321296   90.623678
 C  -88.272679  -15.934455   90.576318
 C  -87.264089  -15.354352   89.813832
 C  -86.355996  -16.127972   89.101990
 C  -87.165369  -13.854609   89.769131
 F  -86.962638  -13.339105   90.996992
 F  -88.301626  -13.301324   89.302993
 F  -86.160627  -13.427278   88.984686
 N  -81.784786  -19.647790   83.929266
 C  -80.442163  -19.406327   83.835962
 N  -79.626111  -19.765497   84.820133
 C  -78.302809  -19.533319   84.676027
 N  -77.684770  -18.978644   83.638209
 C  -78.527555  -18.610535   82.664877
 C  -79.916187  -18.781328   82.679987
 C  -80.345720  -18.229091   81.439476
 N  -79.324396  -17.774388   80.741555
 N  -78.222478  -18.008440   81.488032
 C  -76.914157  -17.628664   81.015818
 C  -77.457874  -19.950770   85.813021
 C  -78.029829  -20.430904   86.994904
 N  -77.323144  -20.823335   88.053375
 C  -75.994939  -20.746905   87.960944
 C  -75.323582  -20.281728   86.833990
 C  -76.070037  -19.872882   85.738135
 H  -80.501673  -22.148548   85.125504
 H  -81.800975  -23.289525   85.540695
 H  -81.837225  -22.388902   84.004211
 H  -83.205298  -17.933888   85.370791
 H  -84.164966  -20.639787   88.556373
 H  -82.938657  -22.420507   87.410655
 H  -85.786970  -19.346652   88.526233
 H  -87.551632  -19.193631   89.961663
 H  -89.151170  -17.791296   91.214029
 H  -88.966364  -15.303136   91.121462
 H  -85.572212  -15.678354   88.506291
 H  -82.340868  -19.123585   83.268136
 H  -81.345485  -18.150381   81.033829
 H  -76.688395  -18.148271   80.081856
 H  -76.875791  -16.549827   80.848852
 H  -76.191548  -17.912307   81.783580
 H  -79.112161  -20.491291   87.087336
 H  -75.437769  -21.074167   88.836739
 H  -74.238077  -20.240196   86.817760
 H  -75.594582  -19.498469   84.835910
