34 
6fnx_ligand_ani.xyz
 C  -12.285285   -6.123695    0.638633
 C  -13.202445   -5.307114    0.011326
 C  -14.496652   -5.023281    0.582545
 C  -11.378787   -5.496120   -1.158502
 N  -14.648114   -5.703314    1.802217
 N  -12.549424   -6.756480    1.835656
 C  -13.186498   -2.566794   -1.783679
 C  -13.185973   -4.039577   -2.173148
 N  -12.603028   -4.905608   -1.157219
 N  -11.146195   -6.236012   -0.090530
 O  -15.385165   -4.312661    0.144388
 C  -13.772333   -6.549433    2.475098
 O  -14.060116   -7.073489    3.532105
 C  -11.527908   -7.557711    2.503371
 C  -10.672916   -6.750379    3.463335
 C  -10.929565   -6.747354    4.834476
 C  -10.142921   -5.991150    5.697989
 C   -9.095475   -5.226749    5.194898
 C   -8.840630   -5.215038    3.826776
 C   -9.627782   -5.971874    2.965252
 H  -10.691491   -5.347557   -1.980800
 H  -15.532729   -5.569573    2.276441
 H  -13.564399   -1.967854   -2.618977
 H  -13.835878   -2.398470   -0.920872
 H  -12.175364   -2.223100   -1.545069
 H  -14.207108   -4.385570   -2.355637
 H  -12.609554   -4.205052   -3.087279
 H  -12.047281   -8.360154    3.030767
 H  -10.906462   -7.988573    1.711400
 H  -11.755381   -7.335951    5.229313
 H  -10.347291   -6.001751    6.765785
 H   -8.478651   -4.636181    5.868370
 H   -8.025084   -4.615618    3.430255
 H   -9.455116   -5.958762    1.891313
