34 
6fnx_ligand_xtb.xyz
 C    0.604611   -0.053013   -0.841243
 C    1.830367    0.106980   -0.204794
 C    2.179900    1.313968    0.483547
 C    1.684969   -1.841211   -1.148664
 N    1.134629    2.230230    0.389034
 N   -0.346375    0.921199   -0.860299
 C    3.767680   -1.718378    1.570532
 C    3.820030   -1.394692    0.080638
 N    2.511553   -1.067588   -0.425518
 N    0.532520   -1.269488   -1.424923
 O    3.202980    1.576942    1.080846
 C   -0.105262    2.113969   -0.218959
 O   -0.904944    3.020721   -0.189015
 C   -1.646607    0.669596   -1.469167
 C   -2.537919   -0.063771   -0.500513
 C   -3.268083    0.643883    0.445808
 C   -4.053871   -0.029879    1.364159
 C   -4.113051   -1.413311    1.345036
 C   -3.380150   -2.122393    0.408178
 C   -2.592478   -1.450979   -0.510627
 H    1.946820   -2.827781   -1.476339
 H    1.289061    3.122013    0.846860
 H    3.465263   -0.835788    2.127791
 H    3.061925   -2.523252    1.764708
 H    4.752159   -2.022516    1.913676
 H    4.196064   -2.248436   -0.488621
 H    4.474284   -0.533909   -0.079108
 H   -1.474321    0.071408   -2.365352
 H   -2.070761    1.642282   -1.726897
 H   -3.212399    1.722401    0.460998
 H   -4.621258    0.525748    2.096267
 H   -4.728450   -1.938257    2.060915
 H   -3.421807   -3.201729    0.393666
 H   -2.007973   -1.998583   -1.234857
