79 
6fo8_ligand_xtb.xyz
 C   -8.697895   -0.147963   -0.668151
 C   -7.807670    0.689364   -1.579090
 C   -6.352224    0.221285   -1.596048
 C   -5.632686    0.425858   -0.264646
 C   -4.157672    0.046947   -0.360421
 C   -3.432930    0.214108    0.981512
 C   -2.000728   -0.212524    0.840612
 O    4.896728    0.218612   -1.103648
 C    5.488827   -0.824480   -0.350106
 C    6.409602   -1.585072   -1.306256
 C    6.310772   -0.232390    0.801402
 C    4.394776   -1.744163    0.234880
 C    3.484973   -2.354407   -0.828132
 C    2.307971   -3.107482   -0.214238
 C    1.364034   -3.636765   -1.290970
 C    0.188190   -4.426948   -0.709677
 C   -0.614587   -3.671172    0.314537
 C   -0.964365   -2.343018    0.121208
 C   -1.034033   -4.303115    1.479012
 C   -1.787213   -3.621462    2.418741
 C   -2.123478   -2.296401    2.217935
 C   -1.704725   -1.636740    1.065265
 C   -1.000901    0.602665    0.458367
 C   -1.098667    2.012237    0.200219
 C   -0.084017    2.787336   -0.216952
 C    1.269785    2.286900   -0.511085
 C    1.522488    1.358885   -1.423928
 C    2.349770    2.963225    0.313461
 O    3.656878    2.554350   -0.018021
 C    2.210527    4.490200    0.214023
 C    0.795459    4.971174    0.562210
 O    0.480265    4.774765    1.919669
 C   -0.223513    4.277577   -0.355578
 H   -9.734591    0.168456   -0.759388
 H   -8.403040   -0.041528    0.372433
 H   -8.635757   -1.199957   -0.938684
 H   -8.200023    0.638215   -2.597697
 H   -7.846480    1.734532   -1.263321
 H   -5.816322    0.774437   -2.371794
 H   -6.318042   -0.837381   -1.864202
 H   -6.105517   -0.183370    0.507457
 H   -5.720008    1.473187    0.035683
 H   -3.665480    0.668671   -1.112124
 H   -4.069415   -0.993823   -0.681827
 H   -3.505448    1.253156    1.306274
 H   -3.933048   -0.407452    1.725838
 H    4.478609    0.838563   -0.485309
 H    7.247174   -0.951677   -1.586698
 H    6.787226   -2.487767   -0.834810
 H    5.867838   -1.846696   -2.209823
 H    7.051163    0.460809    0.408412
 H    6.822496   -1.018811    1.349537
 H    5.663310    0.309461    1.489039
 H    3.781864   -1.149372    0.918852
 H    4.870060   -2.535684    0.816898
 H    3.110771   -1.552911   -1.468107
 H    4.057173   -3.041149   -1.453897
 H    1.755636   -2.442924    0.454144
 H    2.680565   -3.941429    0.385699
 H    0.993307   -2.798676   -1.883889
 H    1.919124   -4.290685   -1.968077
 H   -0.475742   -4.719883   -1.529845
 H    0.565683   -5.344607   -0.252541
 H   -0.670523   -1.835126   -0.784929
 H   -0.770178   -5.337006    1.651244
 H   -2.105942   -4.125491    3.319893
 H   -2.683259   -1.764494    2.973474
 H   -0.007740    0.181902    0.367699
 H   -2.054830    2.485089    0.380771
 H    0.724880    0.920545   -1.999024
 H    2.519108    1.006410   -1.629754
 H    2.227853    2.655625    1.361434
 H    3.853302    2.854194   -0.914523
 H    2.930499    4.955882    0.889528
 H    2.446024    4.800608   -0.807810
 H    0.746018    6.056979    0.420581
 H    0.331236    3.832440    2.065714
 H   -1.231801    4.596780   -0.086967
 H   -0.027916    4.578173   -1.388210
