49 
6fqu_ligand_ani.xyz
 C   -1.080462   -3.803627   -6.017457
 C   -7.218545   -1.365548   -1.416205
 C   -1.152910   -1.029701    0.622623
 C   -2.088481   -1.026806   -0.404681
 C   -4.998743   -1.909271   -4.518524
 C   -0.139725   -1.980172    0.648095
 C   -3.669947   -2.095143   -4.867693
 C   -0.989117   -2.920208   -1.402127
 C   -4.374207   -1.768921   -2.209931
 C   -0.914702   -2.384359   -5.492555
 C    3.275680   -4.513605    0.201145
 C    2.325388   -3.482577   -0.400098
 C    3.081843   -5.871593   -0.474406
 C    0.704171   -5.185253   -0.968782
 C   -6.815985   -1.541764   -2.864096
 C   -5.367485   -1.745504   -3.184794
 C   -2.006546   -1.965477   -1.437933
 C   -0.064398   -2.950004   -0.355824
 C   -2.681050   -2.112174   -3.881810
 C   -3.029511   -1.954517   -2.525893
 C    1.620043   -6.259329   -0.416466
 F    1.265243   -6.505078    0.883385
 F    1.408449   -7.421639   -1.108542
 N    0.944070   -3.942931   -0.267573
 O   -7.644236   -1.522316   -3.753369
 O   -1.354857   -2.242106   -4.148608
 H   -0.675711   -3.875490   -7.032818
 H   -0.539311   -4.507876   -5.377984
 H   -2.130441   -4.112547   -6.047869
 H   -8.291879   -1.175305   -1.373817
 H   -6.985218   -2.268256   -0.840405
 H   -6.677188   -0.530067   -0.959350
 H   -1.212470   -0.285592    1.412491
 H   -2.877616   -0.277696   -0.422243
 H   -5.773760   -1.886168   -5.277832
 H    0.590116   -2.001760    1.453787
 H   -3.415336   -2.229069   -5.913255
 H   -0.914087   -3.641196   -2.207584
 H   -4.647675   -1.664227   -1.161851
 H    0.144507   -2.116562   -5.459118
 H   -1.416364   -1.648637   -6.135039
 H    3.061457   -4.612826    1.270409
 H    4.312195   -4.175184    0.098010
 H    2.580112   -3.304446   -1.461813
 H    2.429516   -2.523025    0.113864
 H    3.673925   -6.658073    0.004423
 H    3.373705   -5.825572   -1.531341
 H    0.885074   -5.116964   -2.058571
 H   -0.327531   -5.508839   -0.804975
