78 
6fs1_ligand_xtb.xyz
 C   -3.051754   11.473132    7.106158
 C   -2.640172   12.292768    6.075794
 C   -2.544822   11.450502    4.953159
 C   -3.606329   14.758294    2.410418
 C   -2.471094   15.497592    2.818862
 C   -2.147633   16.280082    1.718855
 C   -3.154767   16.552694   -0.550663
 C   -1.071728   17.284254    1.521098
 C   -1.790363   15.494648    4.112663
 C   -2.433769   15.803353    5.296579
 C   -1.749077   15.846697    6.518678
 C   -0.402884   15.585479    6.602629
 C    0.283317   15.249003    5.428691
 C    1.636166   14.910569    5.146740
 C    2.751600   14.836043    6.130058
 C    2.936224   13.420626    6.695341
 C    1.786614   13.007448    7.609611
 C    0.015664   12.676242    9.821738
 C    0.058132   14.618816   11.841134
 C    1.785357   16.808211   11.610056
 C    0.939966   16.689131   12.722239
 C    0.097199   15.618698   12.834594
 C    2.781918   14.307800    2.890297
 O    2.648449   14.218178    1.687823
 O    3.961975   14.082518    3.493737
 C    1.697652   14.666603    3.785486
 O    1.748533   13.929397    8.679581
 C    0.880667   13.737051    9.704917
 C    0.913614   14.742202   10.718487
 C    1.773426   15.854388   10.629990
 C   -0.799726   13.502654   11.936370
 C   -0.812842   12.562203   10.948407
 N    0.452021   14.851080    3.228652
 C   -0.422474   15.207195    4.199934
 N   -3.060955   15.992534    0.764396
 N   -3.936234   15.078439    1.169560
 C   -4.311347   13.678495    3.135789
 S   -3.743058   12.027473    2.554058
 C   -2.216279   11.816729    3.558245
 N   -2.870051   10.209261    5.283617
 N   -3.176485   10.233662    6.577312
 C   -3.590073    9.034841    7.243731
 C   -3.359699   11.767356    8.527535
 H   -2.422703   13.339843    6.128605
 H   -3.984348   16.062089   -1.054608
 H   -3.342819   17.627723   -0.502719
 H   -2.233753   16.378443   -1.110342
 H   -1.490626   18.234437    1.189790
 H   -0.539770   17.445305    2.455130
 H   -0.359193   16.950787    0.764945
 H   -3.489748   16.032000    5.274204
 H   -2.301519   16.099402    7.412226
 H    0.112638   15.634132    7.548949
 H    3.680250   15.134188    5.642970
 H    2.550271   15.516980    6.957518
 H    3.016359   12.704069    5.877766
 H    3.861016   13.393759    7.273494
 H    0.832643   13.018767    7.065049
 H    1.964166   11.991643    7.988524
 H   -0.038073   11.917260    9.057166
 H    2.447043   17.658661   11.534047
 H    0.961243   17.449324   13.489693
 H   -0.555460   15.520564   13.690598
 H    4.624710   13.857661    2.822221
 H    2.424066   15.934647    9.772922
 H   -1.440847   13.407131   12.800137
 H   -1.465790   11.705495   11.026900
 H    0.260276   14.721524    2.248761
 H   -4.142987   13.719423    4.210276
 H   -5.376068   13.697254    2.911654
 H   -1.677681   11.011339    3.062657
 H   -1.652087   12.746167    3.504397
 H   -3.619521    8.242451    6.499256
 H   -2.885338    8.763813    8.033598
 H   -4.582370    9.160102    7.681609
 H   -4.436348   11.735572    8.701677
 H   -2.891998   11.033924    9.182669
 H   -2.994515   12.756779    8.788908
