78 
6fs1_ligand_ani.xyz
 C   -2.786110   11.399645    6.980045
 C   -2.499671   12.178647    5.877014
 C   -2.915104   11.412079    4.768079
 C   -3.735711   14.934376    2.277942
 C   -2.511699   15.541523    2.671364
 C   -2.079215   16.215135    1.530419
 C   -3.028474   16.462829   -0.780721
 C   -0.905334   17.113540    1.263360
 C   -1.876693   15.508258    3.989456
 C   -2.566334   15.835022    5.152989
 C   -1.929712   15.874480    6.404433
 C   -0.587978   15.567298    6.530056
 C    0.145022   15.242607    5.376965
 C    1.527368   14.914677    5.150616
 C    2.643923   15.000408    6.153980
 C    2.978867   13.666905    6.825343
 C    1.908841   13.171107    7.777822
 C    0.313145   12.628013   10.028918
 C    0.206342   14.523582   12.104709
 C    1.686178   16.906891   11.901251
 C    0.887480   16.657669   13.040429
 C    0.166746   15.496817   13.139984
 C    2.708500   14.102582    2.970479
 O    2.590898   13.882142    1.783830
 O    3.871128   13.915062    3.631031
 C    1.615815   14.586182    3.815573
 O    1.837197   14.094196    8.861478
 C    1.045432   13.788360    9.921511
 C    1.008859   14.776360   10.963118
 C    1.745640   15.986458   10.885212
 C   -0.535944   13.313966   12.192068
 C   -0.480636   12.398589   11.176508
 N    0.399895   14.761902    3.207900
 C   -0.516395   15.182479    4.127477
 N   -3.010656   15.973299    0.581298
 N   -4.021302   15.208817    1.017373
 C   -4.647665   14.040911    3.061455
 S   -4.504212   12.273361    2.636961
 C   -2.886484   11.788548    3.322477
 N   -3.391127   10.236461    5.152150
 N   -3.309163   10.246163    6.488160
 C   -3.759179    9.093494    7.238256
 C   -2.632460   11.646287    8.445370
 H   -2.061751   13.170662    5.860078
 H   -3.879528   15.992211   -1.269731
 H   -3.146098   17.551219   -0.809493
 H   -2.107871   16.187146   -1.303494
 H   -1.223560   18.075889    0.840261
 H   -0.351084   17.324680    2.181966
 H   -0.206594   16.667153    0.542104
 H   -3.617923   16.106212    5.096701
 H   -2.510027   16.151867    7.280910
 H   -0.106093   15.559591    7.504893
 H    3.547582   15.375053    5.661155
 H    2.383168   15.731323    6.931218
 H    3.161837   12.900355    6.065638
 H    3.908666   13.778257    7.395954
 H    0.928737   13.100885    7.281712
 H    2.181640   12.178145    8.158692
 H    0.324711   11.884317    9.237453
 H    2.253153   17.832035   11.835630
 H    0.849663   17.395539   13.838319
 H   -0.449231   15.300741   14.014922
 H    4.509807   13.596901    2.970779
 H    2.355597   16.162297   10.004472
 H   -1.145549   13.136989   13.073245
 H   -1.057005   11.476005   11.244740
 H    0.250605   14.558562    2.232430
 H   -4.529081   14.177128    4.139534
 H   -5.680162   14.287126    2.798318
 H   -2.581799   10.923090    2.726304
 H   -2.168166   12.597986    3.153687
 H   -4.163794    8.385857    6.515313
 H   -2.932136    8.623549    7.781141
 H   -4.542636    9.369578    7.951941
 H   -3.587576   11.564984    8.978992
 H   -1.938711   10.931607    8.906862
 H   -2.242809   12.654938    8.606218
