29 
6ft7_ligand_ani.xyz
 C   62.921052   63.915202   52.424917
 C   63.922044   64.794714   50.416037
 C   62.995709   63.963976   51.038756
 N   64.373091   64.509566   56.831066
 C   63.717069   64.642677   54.684006
 C   62.541425   64.563220   55.519490
 N   60.991855   64.185749   59.962116
 C   64.796715   64.624767   55.532660
 C   63.010100   64.469772   56.849422
 C   61.141785   64.588635   55.286887
 C   60.256102   64.492234   56.344439
 C   62.115939   64.370135   57.890568
 C   60.756184   64.378292   57.649596
 C   62.312102   64.250762   59.356265
 C   64.709864   65.512961   52.578253
 C   64.778690   65.569527   51.191984
 C   63.772313   64.694886   53.217298
 C   60.145239   64.258252   59.003474
 O   63.361629   64.215198   59.944484
 H   62.206052   63.249640   52.903570
 H   63.978600   64.836267   49.331472
 H   62.326396   63.348355   50.444136
 H   64.940225   64.457616   57.663894
 H   65.852929   64.648497   55.287708
 H   60.756167   64.697843   54.276410
 H   59.186244   64.506579   56.159832
 H   65.381338   66.126355   53.175381
 H   65.507642   66.219239   50.714565
 H   59.069500   64.232083   59.187313
