29 
6ft9_ligand_dft.xyz
 C   36.084459   29.933286   79.092312
 C   35.922282   30.937062   78.066189
 C   35.942865   30.717045   76.610162
 N   36.260581   29.041703   83.737498
 C   34.955328   31.260089   75.781428
 C   34.985687   31.039430   74.409035
 C   35.995085   30.263887   73.845280
 C   36.979549   29.714519   74.662006
 C   36.955580   29.941804   76.033636
 C   35.755977   32.117438   78.741132
 C   36.005259   30.602110   80.344178
 C   36.120039   29.883616   81.517830
 C   36.084721   30.253884   82.961131
Br   35.530583   33.838981   78.073125
 N   35.804358   31.931052   80.103742
 C   36.258177   28.542725   79.058458
 C   36.372980   27.821355   80.246087
 C   36.304761   28.512477   81.455550
 O   35.937322   31.353779   83.429193
 C   36.379823   28.091523   82.879553
 H   34.157900   31.853213   76.218446
 H   34.211981   31.467928   73.778991
 H   36.014736   30.088828   72.773854
 H   37.774350   29.114045   74.229546
 H   37.739181   29.532915   76.665474
 H   35.719302   32.647892   80.807632
 H   36.295807   28.029682   78.102534
 H   36.507439   26.744497   80.220858
 H   36.523886   27.062235   83.202140
