49 
6ftn_ligand_xtb.xyz
 C    0.011466   -0.289536    0.065957
 C    0.165089    2.073327   -0.413625
 C    0.783029    0.872044   -0.061399
 C    2.215412    0.796879    0.153254
 C    3.082117    1.726700    0.671225
 C    4.527357    0.118943    0.302807
 C   -3.404548    0.772019   -0.630670
 C    5.875181   -1.807152   -0.178410
 C   -2.388765   -1.272971   -0.074084
 C   -6.696759   -1.440509    1.453936
 C   -5.569569   -0.643817    2.033320
 C   -5.298211   -1.654210    0.958899
 C   -1.837476    3.475072   -0.985842
 C   -4.996255   -2.289655   -1.454597
 C   -4.910519   -1.164877   -0.423036
 N    5.742084   -0.520267    0.267341
 C   -1.953997    1.007483   -0.472742
 C   -1.343773   -0.203882   -0.140973
 C   -1.206058    2.170371   -0.619918
 C    2.752765    3.080372    1.203288
 C    7.288099   -2.326133   -0.131872
 N    4.378219    1.321179    0.745448
 N   -3.596535   -0.557750   -0.408331
 O   -4.288618    1.562385   -0.905755
 O    4.918657   -2.438079   -0.568402
 S    3.084994   -0.671271   -0.248816
 H    0.482582   -1.226037    0.324836
 H    0.771716    2.952845   -0.560896
 H   -2.454092   -1.714983    0.927160
 H   -2.189556   -2.076988   -0.792082
 H   -7.149655   -2.210501    2.060181
 H   -7.392925   -0.934421    0.802981
 H   -5.495235    0.398843    1.764320
 H   -5.247330   -0.858498    3.041101
 H   -4.809528   -2.575980    1.254039
 H   -2.885915    3.328477   -1.226924
 H   -1.326410    3.919900   -1.838066
 H   -1.765010    4.171577   -0.150745
 H   -4.369622   -3.130751   -1.165058
 H   -6.023267   -2.637027   -1.527242
 H   -4.677736   -1.931516   -2.430552
 H   -5.583880   -0.350611   -0.717153
 H    6.534282    0.010876    0.599469
 H    2.830537    3.831830    0.417749
 H    3.469839    3.333349    1.980158
 H    1.745593    3.099386    1.611627
 H    7.669953   -2.284126    0.885976
 H    7.303544   -3.354309   -0.480692
 H    7.928004   -1.720388   -0.770186
