55 
6fui_ligand_dft.xyz
 N    0.094062    2.041087   -0.445122
 C   -2.223090    2.330504    0.378656
 C   -2.480311    3.557858   -0.534851
 C   -1.592709    4.759970   -0.147244
 C   -1.170231    4.699419    1.321608
 C    3.185375   -0.620664   -0.057776
 O   -1.986008    0.596993   -1.288113
 C   -2.697632    1.055636   -0.275334
 O   -3.702917    0.455950    0.093182
 C   -0.321466    3.448694    1.616141
 C   -0.738024    2.222051    0.775185
 C    1.194924    1.165211   -0.297808
 N    0.841124   -0.091915    0.048409
 C    1.808794   -0.974144    0.172324
 C    4.278950   -1.512219    0.016229
 C    5.554914   -1.063987   -0.226309
 C    5.779888    0.288247   -0.557475
 C    4.730662    1.169770   -0.655012
 C    3.410557    0.731992   -0.412696
 N    2.386315    1.636742   -0.526925
 N    1.470980   -2.256211    0.513400
 C    0.188358   -2.833100    0.516124
 C   -0.063907   -3.886565    1.397198
 C   -1.282533   -4.554959    1.366395
 C   -2.264428   -4.179911    0.458324
 C   -2.022013   -3.116777   -0.416048
 C   -0.805583   -2.443334   -0.388127
 C   -3.068785   -2.718903   -1.422778
 N   -4.217920   -2.010202   -0.753112
 H    0.441776    2.928377   -0.798023
 H   -2.805070    2.432431    1.298130
 H   -2.307206    3.291205   -1.582695
 H   -3.538468    3.823655   -0.452143
 H   -2.129552    5.690636   -0.350762
 H   -0.696450    4.790286   -0.781172
 H   -2.069047    4.697484    1.950938
 H   -0.609213    5.597843    1.593925
 H   -1.120905    1.111429   -1.303018
 H    0.739188    3.648133    1.423692
 H   -0.397710    3.195457    2.678207
 H   -0.598978    1.308401    1.357733
 H    4.130183   -2.564029    0.243174
 H    6.390979   -1.752889   -0.170635
 H    6.792629    0.630860   -0.744298
 H    4.880893    2.211380   -0.916524
 H    2.217034   -2.854192    0.831678
 H    0.698944   -4.188153    2.109569
 H   -1.458467   -5.378487    2.050259
 H   -3.201433   -4.731603    0.416531
 H   -0.623925   -1.623326   -1.069170
 H   -3.485537   -3.591290   -1.932028
 H   -2.676074   -2.022801   -2.165344
 H   -5.021201   -1.922949   -1.379990
 H   -4.523879   -2.519520    0.079268
 H   -3.949292   -1.017121   -0.444774
