41 
6fyz_ligand_dft.xyz
 C   -0.124809   -0.125296    1.396542
 C   -1.504755   -0.252146    1.325404
 C   -2.199234    0.158460    0.182935
 C   -3.669663    0.030316    0.103592
 C   -4.356668   -1.082330    0.588775
 C    0.604978    0.417751    0.336447
 C   -0.084084    0.824860   -0.807484
 C   -6.354969   -0.200404   -0.036944
 C   -1.466878    0.695772   -0.878933
 C    2.384289   -1.534927   -1.090497
 C   -4.482785    1.016400   -0.458859
 C    2.115321    0.488822    0.476352
 C    2.832405   -0.762555   -0.019776
 C    3.099226   -2.650295   -1.516453
 N   -5.680384   -1.207119    0.530097
 C    2.765375    1.689215   -0.207920
 C   -7.846520   -0.335409   -0.141468
 O    2.543618    2.069582   -1.351611
 N    3.667892    2.348445    0.568062
 O    4.468366    3.273017   -0.092400
 C    4.280499   -3.012993   -0.875359
 C    4.752978   -2.257715    0.193344
 C    4.021796   -1.152343    0.588631
 F    4.489429   -0.411077    1.624945
 N   -5.805692    0.913402   -0.538406
 H    0.393325   -0.447404    2.296461
 H   -2.050711   -0.649925    2.176233
 H   -3.814318   -1.916330    1.032524
 H    0.465455    1.253301   -1.637403
 H   -1.980828    1.002025   -1.785918
 H    1.458776   -1.259369   -1.585653
 H   -4.045994    1.935745   -0.846889
 H    2.330676    0.579130    1.545920
 H    2.730482   -3.237384   -2.351141
 H   -8.328543    0.630349    0.027093
 H   -8.212239   -1.073510    0.574251
 H   -8.118060   -0.668096   -1.150044
 H    4.209859    1.826943    1.245648
 H    4.082015    3.260920   -0.992299
 H    4.837984   -3.883810   -1.205030
 H    5.669657   -2.507859    0.715593
