41 
6fyz_ligand_ani.xyz
 C   -0.102471   -0.320383    1.249168
 C   -1.480314   -0.460178    1.190647
 C   -2.206714    0.132442    0.153514
 C   -3.679388    0.008617    0.090333
 C   -4.348963   -1.186374    0.353593
 C    0.594748    0.398103    0.276022
 C   -0.125523    0.979415   -0.766704
 C   -6.363808   -0.207733   -0.012423
 C   -1.505741    0.851193   -0.819540
 C    2.442387   -1.592944   -1.080264
 C   -4.509872    1.082069   -0.232795
 C    2.102563    0.469001    0.417743
 C    2.849591   -0.780623   -0.027198
 C    3.196830   -2.697591   -1.464850
 N   -5.670493   -1.310034    0.295974
 C    2.742425    1.691698   -0.240778
 C   -7.855704   -0.331712   -0.084194
 O    2.520899    2.106337   -1.371233
 N    3.638510    2.332058    0.561804
 O    4.359728    3.355119   -0.035047
 C    4.380451   -3.000735   -0.797926
 C    4.816870   -2.198723    0.253625
 C    4.040961   -1.110100    0.606660
 F    4.467987   -0.313138    1.623145
 N   -5.834259    0.992818   -0.276997
 H    0.450709   -0.786613    2.061843
 H   -2.004082   -1.010008    1.969057
 H   -3.788539   -2.090192    0.598682
 H    0.404067    1.546408   -1.525820
 H   -2.049603    1.302349   -1.645867
 H    1.515868   -1.354125   -1.600511
 H   -4.083030    2.065162   -0.438897
 H    2.299801    0.569297    1.489973
 H    2.859101   -3.322368   -2.286475
 H   -8.325180    0.611180    0.204739
 H   -8.195104   -1.142017    0.564301
 H   -8.167943   -0.562733   -1.108408
 H    4.231711    1.772429    1.163633
 H    4.021645    3.335604   -0.954172
 H    4.970029   -3.863065   -1.096234
 H    5.737378   -2.401265    0.792827
