36 
6fz4_ligand_ani.xyz
 C   19.758852   29.712648   62.794946
 C   19.053679   30.721271   63.453809
 C   19.749946   31.806143   63.969672
 C   21.128160   31.875120   63.822523
 C   27.381836   26.296024   61.734331
 C   27.427510   26.582697   63.086625
 C   26.522341   27.497102   63.648188
 C   26.435012   26.904943   60.907525
 C   25.586249   28.147292   62.814894
 C   25.547613   27.818147   61.451141
 C   21.126826   29.756103   62.639347
 C   23.219598   33.153987   64.178144
 C   17.562658   30.612498   63.590974
 C   23.967207   32.083209   63.388942
 C   21.812523   30.854973   63.161953
 C   24.669323   29.142606   63.416460
 F   19.072890   28.672816   62.303356
 F   17.200590   29.506735   64.264874
 F   17.054419   31.669110   64.253409
 F   16.951705   30.559785   62.394306
 N   21.873117   32.939792   64.326041
 N   23.212622   30.972249   63.046556
 N   23.907618   29.892432   62.528000
 O   23.773617   34.126476   64.639455
 O   25.136505   32.198141   63.097425
 O   24.560299   29.299285   64.630502
 O   26.593425   27.716550   64.964111
 H   19.209596   32.594579   64.484536
 H   28.087499   25.582941   61.316252
 H   28.150085   26.110183   63.744563
 H   26.396520   26.670936   59.847709
 H   24.790348   28.268255   60.814175
 H   21.648195   28.960895   62.122690
 H   21.399415   33.673825   64.837232
 H   24.314621   30.098039   61.626170
 H   25.858582   28.338214   65.191165
