36 
6fz4_ligand_dft.xyz
 C   -2.260980   -1.401071   -0.374563
 C   -3.362965   -0.635089   -0.004260
 C   -3.189663    0.732220    0.165466
 C   -1.945895    1.321036   -0.029682
 C    6.053686   -1.772965   -0.469717
 C    5.675206   -1.433933    0.814293
 C    4.407683   -0.885495    1.058038
 C    5.183273   -1.582677   -1.550631
 C    3.533083   -0.654720   -0.029274
 C    3.939587   -1.029227   -1.323291
 C   -1.014062   -0.842959   -0.576139
 C   -0.580660    3.371833   -0.021089
 C   -4.705534   -1.282244    0.205414
 C    0.624975    2.511409   -0.405203
 C   -0.853832    0.528280   -0.402096
 C    2.233051   -0.024363    0.242467
 F   -2.404976   -2.717769   -0.544415
 F   -4.662171   -2.207524    1.173205
 F   -5.632753   -0.374902    0.557570
 F   -5.140450   -1.886821   -0.909126
 N   -1.761146    2.693425    0.136262
 N    0.380290    1.156911   -0.598221
 N    1.482340    0.367377   -0.875248
 O   -0.473022    4.564842    0.133929
 O    1.723632    2.984258   -0.565924
 O    1.768918    0.130439    1.366266
 O    4.094575   -0.602813    2.324406
 H   -4.035871    1.345506    0.454700
 H    7.036265   -2.203390   -0.638365
 H    6.333288   -1.588810    1.662193
 H    5.478551   -1.872260   -2.553034
 H    3.255410   -0.913994   -2.158825
 H   -0.180336   -1.469853   -0.862653
 H   -2.550626    3.267426    0.404092
 H    2.013938    0.741225   -1.652507
 H    3.167592   -0.280710    2.341927
