36 
6fz4_ligand_xtb.xyz
 C   -2.063947   -1.327517   -0.549986
 C   -3.206293   -0.679623   -0.081184
 C   -3.132991    0.666740    0.239992
 C   -1.934265    1.355434    0.106918
 C    6.072325   -1.529037   -0.422140
 C    5.417809   -1.793123    0.757131
 C    4.107945   -1.346034    0.964757
 C    5.436395   -0.814258   -1.433705
 C    3.467300   -0.595872   -0.048009
 C    4.154456   -0.354034   -1.245822
 C   -0.862336   -0.663041   -0.687755
 C   -0.730341    3.478268    0.260655
 C   -4.499138   -1.439415    0.054966
 C    0.517416    2.751764   -0.194386
 C   -0.785707    0.682812   -0.345776
 C    2.116046   -0.097749    0.208602
 F   -2.125697   -2.618648   -0.885033
 F   -4.393262   -2.489521    0.878025
 F   -5.485000   -0.671492    0.542227
 F   -4.935552   -1.910524   -1.122703
 N   -1.846339    2.697957    0.399971
 N    0.389396    1.399368   -0.443957
 N    1.570200    0.727327   -0.765794
 O   -0.739964    4.657527    0.508000
 O    1.586882    3.296707   -0.345646
 O    1.440908   -0.409575    1.182351
 O    3.526008   -1.651400    2.123317
 H   -4.011035    1.182343    0.596388
 H    7.081287   -1.883625   -0.567095
 H    5.885859   -2.354356    1.549925
 H    5.948284   -0.620552   -2.363109
 H    3.670836    0.181514   -2.048203
 H   -0.003036   -1.198877   -1.053794
 H   -2.679514    3.171443    0.732451
 H    2.204874    1.343969   -1.264818
 H    2.606515   -1.300719    2.124355
