42 
6fzm_ligand_ani.xyz
 C  -17.597853  -12.580204    1.720546
 C  -16.408490  -12.929846    0.946053
 C  -15.423545  -13.206074    0.304811
 C  -14.251173  -13.557421   -0.456049
 C  -13.779932  -14.866495   -0.430324
 C  -14.461565  -15.925294    0.389282
 C  -12.633495  -15.192761   -1.189619
 N  -12.179697  -16.510479   -1.152922
 C  -13.599787  -12.565924   -1.218872
 C  -12.480836  -12.889545   -1.951085
 C  -11.992222  -14.198224   -1.943051
 C  -10.792081  -14.535028   -2.717407
 O  -10.128434  -13.766682   -3.386347
 N  -10.450188  -15.880027   -2.620602
 C  -11.146312  -16.793179   -1.866837
 C  -10.605994  -18.195748   -1.931395
 S   -8.907922  -18.337089   -1.297678
 C   -9.212109  -18.848080    0.378465
 C  -10.189664  -18.253853    1.185131
 C  -10.348660  -18.680097    2.496582
 C   -9.543723  -19.692977    3.016328
 C   -9.765974  -20.104400    4.425096
 O  -10.598341  -19.624909    5.161254
 O   -8.937613  -21.088622    4.831774
 C   -8.564651  -20.284059    2.213275
 C   -8.401281  -19.858889    0.903113
 H  -18.311563  -12.016190    1.111083
 H  -18.104618  -13.480004    2.085772
 H  -17.334102  -11.966670    2.588191
 H  -14.341983  -15.726628    1.461952
 H  -15.539702  -15.942900    0.193272
 H  -14.025957  -16.900630    0.160300
 H  -13.989051  -11.552501   -1.219778
 H  -11.953663  -12.149723   -2.545875
 H   -9.586811  -16.152811   -3.079361
 H  -11.260270  -18.869707   -1.376181
 H  -10.576798  -18.534580   -2.971669
 H  -10.828199  -17.465973    0.795965
 H  -11.101508  -18.239101    3.141619
 H   -9.180835  -21.263819    5.755398
 H   -7.938726  -21.071401    2.620995
 H   -7.643672  -20.318456    0.273798
