42 
6fzm_ligand_dft.xyz
 C   -6.795845    2.924477    0.783351
 C   -5.727642    2.015569    0.379283
 C   -4.843938    1.264252    0.040956
 C   -3.791931    0.376049   -0.354962
 C   -2.844753   -0.043152    0.588830
 C   -2.925802    0.433968    2.012196
 C   -1.819908   -0.914644    0.163027
 N   -0.869287   -1.326321    1.095359
 C   -3.728604   -0.058385   -1.694304
 C   -2.724671   -0.907719   -2.103272
 C   -1.769450   -1.338790   -1.179005
 C   -0.692622   -2.231346   -1.621275
 O   -0.521809   -2.654193   -2.749043
 N    0.178328   -2.578255   -0.588071
 C    0.062058   -2.116796    0.695163
 C    1.088328   -2.589445    1.694002
 S    2.815596   -2.494684    1.131101
 C    3.005136   -0.783469    0.683930
 C    2.180048    0.243317    1.151361
 C    2.422228    1.553935    0.763556
 C    3.477589    1.863706   -0.093300
 C    3.681150    3.301677   -0.461950
 O    3.287627    4.216299    0.213502
 O    4.342812    3.543110   -1.615352
 C    4.312083    0.835999   -0.539919
 C    4.077234   -0.477277   -0.159473
 H   -6.697145    3.199249    1.838390
 H   -6.770629    3.843999    0.189277
 H   -7.777480    2.459633    0.643764
 H   -2.833559    1.524883    2.056779
 H   -3.898328    0.180308    2.447501
 H   -2.137198   -0.013456    2.616649
 H   -4.480990    0.288993   -2.394188
 H   -2.651358   -1.254076   -3.128484
 H    0.977654   -3.143916   -0.849860
 H    0.941156   -3.654088    1.907725
 H    0.933118   -2.041116    2.624225
 H    1.339986    0.037408    1.804403
 H    1.790864    2.358166    1.126007
 H    4.433691    2.728627   -2.126759
 H    5.175329    1.046943   -1.166651
 H    4.728891   -1.267865   -0.519445
