54 
6g07_ligand_xtb.xyz
 C    0.828310   -0.141484   -0.923615
 C    2.070966   -0.697807   -0.724318
 C    3.058337    0.055622   -0.056843
 C    6.612547   -0.249055    0.396075
 C    7.702166    0.607384    0.309132
 C    8.958617    0.111766    0.009961
 C    9.135787   -1.243538   -0.211436
 C    8.051941   -2.100804   -0.129881
 C    6.796325   -1.607403    0.177865
 C    5.056124    0.234737    2.287047
 C   -1.146010    2.928613   -0.298605
 C   -2.576013    3.191761   -0.780511
 C   -3.488556    2.031228   -0.518733
 C   -3.788487    1.675019    0.794955
 C   -4.614856    0.598173    1.056888
 C   -5.142298   -0.123475    0.002107
 C   -4.852500    0.207391   -1.306371
 C   -4.019312    1.282737   -1.565368
 C   -7.890503   -0.676823    0.506311
 C   -8.909528   -1.755401    0.798536
 N    2.801973    1.273240    0.383493
 C    1.610828    1.816983    0.194190
 C    0.578827    1.155677   -0.460111
 O    4.261477   -0.491066    0.108026
Cl    2.435309   -2.285756   -1.278687
 N   -0.682517    1.710443   -0.690955
 C    5.256923    0.294633    0.770870
 O   -0.516687    3.737931    0.338501
 S   -6.262938   -1.489315    0.338363
 O   -5.911919   -2.072037    1.604838
 O   -6.297221   -2.345768   -0.816616
 H    0.059591   -0.704475   -1.432408
 H    7.563812    1.666050    0.476685
 H    9.800580    0.785356   -0.054544
 H   10.116202   -1.629552   -0.448764
 H    8.185268   -3.158495   -0.303830
 H    5.948156   -2.271265    0.239124
 H    4.090675    0.661254    2.546406
 H    5.841436    0.799383    2.781474
 H    5.097173   -0.798810    2.622903
 H   -2.926893    4.082941   -0.257626
 H   -2.533599    3.416355   -1.848707
 H   -3.366934    2.248438    1.606929
 H   -4.846772    0.294366    2.065397
 H   -5.271069   -0.391474   -2.099843
 H   -3.789244    1.548397   -2.587524
 H   -7.796707    0.039270    1.317949
 H   -8.079876   -0.166799   -0.434134
 H   -8.917639   -2.475351   -0.016454
 H   -8.632142   -2.275725    1.712306
 H   -9.906929   -1.336267    0.914909
 H    1.484696    2.814867    0.583097
 H   -1.326485    1.110279   -1.190243
 H    5.154265    1.334304    0.436127
