60 
6g0v_ligand_ani.xyz
 C    4.528398   -1.053339   -1.453439
 C    4.511889   -2.186628   -0.425680
 C    2.047909   -2.410719   -0.747000
 C    2.074845   -1.241722   -1.740526
 C    3.222808   -0.278925   -1.408410
 C    1.948190    0.990122    0.199660
 C    0.587218    0.319202   -0.090536
 C   -0.563346    1.335863    0.072077
 C   -0.096709    2.634944    0.731956
 C    1.102205    3.212171   -0.025192
 C    1.870776    4.246996    0.790623
 C   -2.371007   -0.182773    0.393208
 C   -3.274911   -0.733756    1.485987
 C   -4.261359   -1.749731    0.912467
 C   -5.041649   -1.120721   -0.235033
 C   -4.058526   -0.545213   -1.263841
 C   -4.751571    0.242669   -2.366697
 C    4.761320   -1.726937    1.015398
 N    3.283513   -2.961215   -0.488596
 O    1.026259   -2.862864   -0.270429
 O    2.038897    2.224511   -0.468846
 O    2.920723    4.793309    0.028189
 O    0.247184    2.406815    2.083045
 O   -1.588849    0.839080    0.927597
 O   -3.148715    0.368401   -0.653815
 O   -5.380333    1.406656   -1.843527
 O   -5.856384   -0.127575    0.356326
 O   -5.116937   -2.210571    1.937237
 O   -2.487506   -1.347049    2.477318
 O    4.187397   -2.163892    1.981917
 O    5.774578   -0.846731    1.104097
 S    0.507681   -0.359866   -1.774704
 O    3.073616    0.222375   -0.084885
 H    4.643274   -1.486275   -2.452348
 H    5.377724   -0.390620   -1.269331
 H    5.339643   -2.875512   -0.644870
 H    2.232369   -1.649530   -2.744429
 H    3.240444    0.546568   -2.131588
 H    1.999876    1.160735    1.279759
 H    0.454651   -0.504029    0.621882
 H   -0.974355    1.582344   -0.912652
 H   -0.920712    3.365626    0.678680
 H    0.734339    3.679680   -0.949095
 H    2.232833    3.774386    1.716099
 H    1.206300    5.072120    1.065985
 H   -1.733077   -0.994896   -0.002098
 H   -3.859170    0.109437    1.890327
 H   -3.704916   -2.624645    0.552451
 H   -5.667655   -1.886645   -0.723084
 H   -3.491762   -1.377513   -1.713363
 H   -4.024539    0.513576   -3.143128
 H   -5.541516   -0.360434   -2.823376
 H    3.214622   -3.655022    0.249596
 H    3.439071    4.041103   -0.290826
 H   -0.459162    1.846958    2.437903
 H   -4.686020    1.882107   -1.362655
 H   -6.052200    0.542246   -0.324737
 H   -5.775256   -1.508667    2.063986
 H   -3.120225   -1.821867    3.035895
 H    5.849594   -0.623603    2.046528
