30 
6g25_ligand_ani.xyz
 C   -5.754814    7.238229  -21.859361
 C   -3.772340    8.082793  -22.355615
 C   -3.132488    6.938957  -17.983094
 N   -1.783294   11.802237  -19.294837
 C   -7.007123    6.614331  -21.349137
 C   -1.060314   10.808989  -18.774297
 C   -1.497522    9.493298  -18.681015
 N   -3.899525    5.863287  -18.243146
 C   -3.528010   10.195154  -19.712957
 C   -2.760957    9.163173  -19.166993
 C   -4.130042    7.080158  -19.957828
 C   -2.335885    8.505526  -22.380814
 C   -4.525407    7.464686  -21.301647
 C   -2.995444   11.477288  -19.750758
 N   -4.527176    5.924712  -19.423466
 C   -3.272398    7.789471  -19.058629
 N   -4.516737    8.233199  -23.421085
 O   -5.754809    7.714406  -23.105966
 H   -2.583226    7.050981  -17.057613
 H   -7.755104    6.551839  -22.141866
 H   -6.788640    5.617168  -20.954549
 H   -7.408851    7.191661  -20.510108
 H   -0.072188   11.079280  -18.405590
 H   -0.852334    8.735597  -18.243897
 H   -4.037705    5.051813  -17.662669
 H   -4.526290   10.007086  -20.097935
 H   -1.906537    8.354666  -23.374359
 H   -2.248488    9.567952  -22.136426
 H   -1.751659    7.946790  -21.644958
 H   -3.578693   12.293272  -20.173387
