31 
6g2b_ligand_xtb.xyz
 N   -1.364353    2.143760   -0.005884
 N    0.805336    2.553696   -0.018709
 C    0.625745    1.202039   -0.028856
 C   -0.733544    0.920265   -0.014157
 C    1.766069    0.299670   -0.095130
 C   -1.434067   -0.351206    0.058010
 C    2.984612    0.709894    0.443736
 C    3.991511   -1.369550   -0.199198
 C   -2.774443    2.404750    0.061088
 C   -1.696583   -2.535453    0.999128
 C   -3.150443   -1.879060   -0.607618
 C   -0.384982    3.078047   -0.001781
 C    4.086906   -0.120966    0.393711
 C    2.789252   -1.777029   -0.753573
 C    1.683383   -0.949322   -0.707614
 C   -1.008580   -1.337251    0.952411
 N   -2.748912   -2.807300    0.242998
 C   -2.538680   -0.644076   -0.743365
 H    3.044799    1.687109    0.897263
 H    4.852706   -2.020472   -0.236604
 H   -3.210307    2.470243   -0.939604
 H   -3.276479    1.609521    0.612513
 H   -2.938952    3.353101    0.572577
 H   -1.396820   -3.321253    1.680093
 H   -4.008000   -2.141056   -1.214150
 H   -0.588680    4.130594    0.016215
 H    5.025596    0.204447    0.818336
 H    2.713857   -2.743913   -1.229773
 H    0.755756   -1.267022   -1.161025
 H   -0.157550   -1.158932    1.590911
 H   -2.897361    0.062020   -1.476351
