39 
6g2f_ligand_ani.xyz
 C   -0.406609    8.427750  -19.608780
 C   -1.373052    9.471206  -19.652539
 C   -0.920501   10.817314  -19.671490
 C   -3.036032   11.634237  -19.945929
 C   -2.792291    9.246057  -19.723955
 C   -4.595543    7.676357  -21.829390
 C   -3.799720    8.300252  -22.854398
 C   -7.045446    6.757613  -21.998478
 C    0.938703    8.696638  -19.517531
 C   -3.361180    7.907761  -19.624272
 C   -4.269023    7.292699  -20.480994
 C   -4.201391    6.095757  -18.720675
 C   -2.500015    7.283407  -17.316530
 C   -5.790512    7.414507  -22.452777
 C    1.348149   10.037262  -19.485921
 C   -2.372305    8.756459  -22.849611
 C    0.467848   11.076942  -19.560590
 C   -3.602008   10.346455  -19.926984
 F    2.665388   10.295956  -19.388450
 N   -4.802490    6.182501  -19.875704
 N   -3.310511    7.098286  -18.505341
 N   -4.493140    8.415404  -23.958076
 N   -1.755336   11.887917  -19.807683
 O   -5.734149    7.871876  -23.702493
 H   -0.748947    7.397797  -19.660764
 H   -3.686284   12.498629  -20.077726
 H   -7.780697    6.723734  -22.804990
 H   -6.826489    5.747204  -21.638655
 H   -7.461789    7.292765  -21.139436
 H    1.684443    7.910679  -19.472234
 H   -4.368428    5.323453  -17.978559
 H   -3.050095    6.896065  -16.456812
 H   -1.539124    6.760381  -17.389939
 H   -2.312150    8.347290  -17.158751
 H   -1.978080    8.745110  -23.868147
 H   -2.292013    9.780277  -22.473200
 H   -1.751068    8.117916  -22.215269
 H    0.808693   12.106267  -19.553095
 H   -4.676804   10.230824  -20.041833
