45 
6g2r_ligand_dft.xyz
 C   -5.373405    0.696311   -0.274198
 C   -3.990757    1.345721   -0.152046
 C   -4.059308    2.861639   -0.027800
 C   -5.246650   -0.818429   -0.190574
 C   -3.197311   -0.451228    1.197638
 C   -4.508305   -1.228761    1.079435
 C   -1.025972   -0.700392    0.224513
 C   -0.443641    0.288198    1.019945
 C    0.927162    0.503657    0.976592
 C    1.747250   -0.251439    0.138066
 C    1.164012   -1.232659   -0.668763
 C   -0.202278   -1.450975   -0.627242
 C    3.210542   -0.021458    0.094486
 C    3.747570    1.262838   -0.026170
 C    5.115500    1.484608   -0.063050
 C    6.011599    0.417436    0.015792
 C    5.490436   -0.871932    0.134049
 C    4.120163   -1.079110    0.173867
 C    7.422066    0.639075   -0.024089
 F    2.942715    2.321873   -0.121692
 F    5.572940    2.723502   -0.184129
 F    6.310617   -1.910079    0.219634
 F    3.683335   -2.331835    0.301816
 N    8.565291    0.819766   -0.056340
 O   -2.344788   -0.997417    0.206249
 O   -5.274945   -0.927309    2.219155
 O   -6.525604   -1.419461   -0.132235
 O   -6.003162    0.967441   -1.506141
 O   -3.355161    0.924876    1.051452
 O   -4.731100    3.366417   -1.172543
Cl   -0.906411   -2.675782   -1.641374
 H   -5.986751    1.038131    0.574616
 H   -3.385790    1.071314   -1.026973
 H   -4.600043    3.108342    0.896642
 H   -3.041106    3.264857    0.047891
 H   -4.688194   -1.168487   -1.069965
 H   -2.762887   -0.592819    2.192228
 H   -4.267280   -2.299741    1.032158
 H   -1.067636    0.908295    1.650750
 H    1.356990    1.273660    1.607525
 H    1.770849   -1.834727   -1.334876
 H   -6.181253   -1.180216    1.987898
 H   -7.057556   -0.987584   -0.815286
 H   -5.950187    1.925987   -1.646731
 H   -4.847594    4.316807   -1.068982
