44 
6g2s_ligand_xtb.xyz
 O   -6.422511   -1.569131   -0.591111
 C   -5.253246    0.535018   -0.326033
 C   -3.847938    1.111839   -0.113678
 O   -5.892866    1.050219   -1.467663
 C   -3.875827    2.610738    0.197004
 O   -3.223956    0.505585    1.006144
 O   -4.388613    3.308393   -0.919445
 C   -3.090645   -0.881378    0.931237
 C   -4.419827   -1.609438    0.683823
 C   -5.144772   -0.984561   -0.512637
 C   -0.894982   -0.963706   -0.012442
 C   -0.334675   -0.144253    0.961486
 C    1.022391    0.114852    0.944375
 C    1.846683   -0.437542   -0.032002
 C    1.277127   -1.257684   -1.007018
 C   -0.075590   -1.512387   -1.000335
 C    3.291336   -0.159529   -0.034566
 C    3.789897    1.131180    0.155301
 C    5.152473    1.404744    0.160190
 C    6.067214    0.373372   -0.026185
 C    5.600329   -0.922881   -0.218599
 C    4.233098   -1.173659   -0.222718
 F    2.942775    2.155434    0.312645
 F    5.585025    2.655499    0.338774
 F    7.376799    0.624724   -0.020670
 F    6.466577   -1.923699   -0.393436
 F    3.826150   -2.437258   -0.386864
 O   -2.219723   -1.286290   -0.096211
 O   -5.196046   -1.521263    1.845212
 H   -6.932891   -1.037617   -1.215010
 H   -5.854124    0.736530    0.577405
 H   -3.255189    0.941932   -1.025907
 H   -5.640404    1.980573   -1.558204
 H   -2.852564    2.929140    0.427578
 H   -4.501409    2.773652    1.084148
 H   -4.340728    4.254470   -0.747087
 H   -2.706561   -1.177956    1.917919
 H   -4.190919   -2.661245    0.451493
 H   -4.571498   -1.184376   -1.430199
 H   -0.952593    0.304637    1.721593
 H    1.444110    0.742734    1.713713
 H    1.893802   -1.683907   -1.782603
 H   -0.525402   -2.140484   -1.752082
 H   -6.098121   -1.758835    1.584587
