33 
6g38_ligand_ani.xyz
 O    2.514528   -1.702060    1.701114
 C    3.540147   -1.596146    0.739999
 C    3.202334   -0.557188   -0.322214
 O    1.941865   -0.932237   -0.899273
 C    0.997400    0.120060   -0.781042
 N   -0.297766   -0.472418   -0.526825
 C   -0.628701   -1.798001   -0.754694
 C   -1.958780   -1.988867   -0.536993
 C   -2.508877   -0.713558   -0.172494
 C   -3.759345   -0.161100    0.169530
 N   -3.882536    1.145710    0.449132
 C   -2.788343    1.892737    0.389654
 N   -1.544130    1.503289    0.088292
 C   -1.446843    0.198870   -0.185127
 N   -4.873583   -0.931326    0.267512
 C    1.509528    0.989612    0.371799
 O    1.115027    2.327051    0.255151
 C    3.022293    0.866395    0.215157
 O    3.476931    1.764586   -0.771305
 H    1.709781   -1.917069    1.206256
 H    4.450386   -1.297567    1.272613
 H    3.737629   -2.563627    0.254094
 H    3.962186   -0.552546   -1.112353
 H    0.967653    0.700281   -1.713764
 H    0.152457   -2.476099   -1.068843
 H   -2.485619   -2.931263   -0.623466
 H   -2.911884    2.945532    0.620286
 H   -4.891272   -1.815305   -0.215781
 H   -5.749611   -0.434839    0.342729
 H    1.176865    0.545382    1.319960
 H    0.134678    2.328443    0.213562
 H    3.550462    1.027591    1.168573
 H    2.910720    2.548702   -0.697588
