54 
6g3c_ligand_dft.xyz
 C   -0.081988   -2.160246   -0.056421
 C    0.032447    4.527873    0.166972
 C   -1.412615    3.520038   -1.635184
 C    3.560730    0.821487    0.496937
 C    4.477630   -0.293178   -0.049652
 C    3.981885    2.120327   -0.204165
 C   -2.476118   -0.185073    0.145800
 C   -3.646543    0.551349    0.219150
 C   -4.911481   -0.025603    0.199057
 C   -4.939427   -1.412528    0.100995
 C   -3.805627   -2.194673    0.026459
 C   -2.545576   -1.579531    0.047539
 C    4.812881   -2.594966   -0.738475
 C    3.844744    0.896942    2.011039
 N    0.670396   -3.244649   -0.249204
 N    0.349514   -0.910641    0.120690
 C    1.667811   -0.703486    0.078359
 C    2.559470   -1.772729   -0.166595
 C    1.989142   -3.021545   -0.304163
 N    2.131518    0.558622    0.257335
 C    1.162293    1.614106    0.556958
 C    0.499446    2.183182   -0.696505
 C   -0.574112    3.235343   -0.388010
 N    3.936882   -1.522553   -0.299214
 O    5.669353   -0.066874   -0.183320
 O   -6.028915    0.739600    0.273125
 N   -1.434595   -2.418377   -0.041088
 F   -6.160669   -1.990741    0.080986
 F   -3.570594    1.886674    0.313777
 H    0.575966    4.363848    1.104157
 H    0.732090    4.967311   -0.555647
 H   -0.748255    5.268973    0.368991
 H   -0.786502    3.915262   -2.445150
 H   -1.900358    2.608274   -1.995571
 H   -2.195355    4.255802   -1.423063
 H    3.473405    2.988485    0.223283
 H    5.057693    2.254688   -0.089355
 H    3.748100    2.070008   -1.271663
 H   -1.523422    0.321516    0.167659
 H   -3.914840   -3.271555   -0.046713
 H    4.846960   -3.396106    0.007838
 H    4.458219   -3.004645   -1.689832
 H    5.809161   -2.176170   -0.864331
 H    3.281719    1.715923    2.469041
 H    3.553875   -0.037372    2.502417
 H    4.910044    1.069665    2.182804
 H    2.605557   -3.899030   -0.478059
 H    1.679511    2.399758    1.109348
 H    0.399193    1.205366    1.226684
 H    0.048482    1.350852   -1.249061
 H    1.267237    2.618528   -1.350586
 H   -1.249847    2.820174    0.371407
 H   -6.791602    0.147043    0.245033
 H   -1.625114   -3.401141   -0.171138
