27 
6g46_ligand_dft.xyz
 C   -3.579779    2.373684    0.299887
 C   -2.193490    2.598521    0.447230
 C   -2.756141   -2.325063   -0.565723
 C   -1.370576   -2.117493   -0.419555
 C   -4.037114    1.115534    0.013058
 C   -3.618438   -1.271919   -0.426474
 C   -1.293123    1.573480    0.304971
 C    2.967832   -1.111535    0.520083
 C    3.613655    1.207075   -0.313008
 C    2.651671    0.090332   -0.049141
 C    0.606529   -0.737700    0.024922
 C   -0.852366   -0.870078   -0.138073
 C   -3.135398    0.030170   -0.137809
 C   -1.734556    0.255882    0.006693
 N    1.324847    0.288296   -0.319892
 O    4.877281    0.823404   -0.604813
 O    3.316721    2.366020   -0.240724
 S    1.543336   -2.038017    0.753235
 H   -4.277314    3.197929    0.413639
 H   -1.832487    3.597482    0.671947
 H   -3.127275   -3.318798   -0.794457
 H   -0.698760   -2.960467   -0.556350
 H   -5.101133    0.926086   -0.102299
 H   -4.689693   -1.417597   -0.537925
 H   -0.232994    1.771972    0.395012
 H    3.931382   -1.464672    0.862549
 H    4.896727   -0.122453   -0.802696
