27 
6g46_ligand_ani.xyz
 C  -67.345556   35.733933  -45.522875
 C  -67.315805   35.253483  -44.196038
 C  -72.015932   34.501275  -45.908620
 C  -72.011658   34.014099  -44.586615
 C  -68.501920   35.653412  -46.246831
 C  -70.874666   35.029145  -46.446406
 C  -68.434336   34.703012  -43.624126
 C  -71.700817   32.807093  -40.215165
 C  -69.523802   31.616068  -39.748875
 C  -70.450085   32.413890  -40.586992
 C  -70.955708   33.497751  -42.436921
 C  -70.872434   34.044966  -43.809347
 C  -69.680463   35.093611  -45.684535
 C  -69.659511   34.598012  -44.348880
 N  -70.034506   32.815263  -41.830590
 O  -70.084087   31.301585  -38.560512
 O  -68.410779   31.280542  -40.062904
 S  -72.413288   33.704675  -41.481072
 H  -66.448363   36.165313  -45.959835
 H  -66.393440   35.318590  -43.625002
 H  -72.932446   34.451881  -46.489440
 H  -72.923708   33.589280  -44.176993
 H  -68.541509   36.021076  -47.270374
 H  -70.864781   35.410570  -47.465641
 H  -68.395315   34.326849  -42.607084
 H  -72.201940   32.604784  -39.280007
 H  -69.415146   30.785842  -38.081319
