77 
6g47_ligand_xtb.xyz
 C   -0.152356   -1.512938   -0.614725
 C    0.549851   -1.410474    0.759553
 C    1.461278   -2.609811    1.020735
 C    2.709821   -2.552078    0.127182
 C    3.393295   -1.184678    0.316406
 C    2.374634   -0.068810    0.043811
 C    2.954855    1.358519    0.292226
 C    2.999762    2.133745   -1.038084
 C    3.588408    3.531454   -0.832257
 C    5.748332   -1.490337   -0.300622
 C    6.823361   -1.015857   -1.247752
 N    4.521774   -1.005226   -0.576118
 O   -0.680831   -2.697742   -0.822798
 O   -0.261672   -0.583762   -1.378094
 O    3.545318   -3.633244    0.439830
 O    1.249880   -0.200469    0.881313
 O    2.259278    2.073145    1.261045
 O    3.780925    1.415182   -1.971980
 O    3.693110    4.131428   -2.110680
 O    5.955333   -2.259639    0.622957
 C   -5.131277   -1.361785   -1.421787
 C   -3.603410   -1.255229   -1.591482
 C   -3.197801   -0.027576   -2.411035
 C   -3.358001    1.286728   -1.634476
 C   -2.611669    1.130494   -0.296150
 C   -3.217538   -0.057040    0.467285
 C   -2.630353   -0.304756    1.871785
 C   -1.093496   -0.150137    1.986585
 C   -0.679335    0.299359    3.398999
 C   -1.547629    3.030702    0.817873
 C   -1.812403    4.226662    1.698069
 N   -2.653112    2.334669    0.490247
 O   -5.850454   -0.443325   -1.139807
 O   -5.560156   -2.618905   -1.534566
 O   -3.080317   -2.383649   -2.217390
 O   -2.872889    2.376633   -2.367522
 O   -3.070618   -1.253597   -0.270366
 O   -3.315037    0.567364    2.737144
 O   -0.473497   -1.412765    1.727783
 O   -1.305340   -0.466553    4.405119
 O   -0.433657    2.717801    0.428444
 H    0.916894   -3.534865    0.842923
 H    1.771684   -2.581024    2.066254
 H    2.402933   -2.643664   -0.929980
 H    3.747893   -1.123197    1.355494
 H    2.065341   -0.147548   -1.007719
 H    3.978317    1.262479    0.674468
 H    1.972354    2.242185   -1.418002
 H    2.932241    4.101844   -0.168940
 H    4.581127    3.444979   -0.369105
 H    6.610757   -1.379947   -2.250178
 H    7.785877   -1.399954   -0.923424
 H    6.849158    0.070635   -1.272028
 H    4.402638   -0.325338   -1.316519
 H   -1.327739   -2.661005   -1.566285
 H    4.431524   -3.301213    0.678938
 H    1.334833    2.186355    0.975781
 H    3.975017    2.038010   -2.686319
 H    3.957543    5.049617   -2.004740
 H   -2.143482   -0.155671   -2.669273
 H   -3.784862   -0.001328   -3.329201
 H   -4.417024    1.501552   -1.458889
 H   -1.558830    0.937570   -0.530986
 H   -4.287871    0.153298    0.628391
 H   -2.860674   -1.353759    2.116716
 H   -0.708352    0.593615    1.293640
 H   -0.972919    1.337307    3.564516
 H    0.411600    0.229649    3.465131
 H   -0.869094    4.684766    1.980203
 H   -2.350238    3.917597    2.591026
 H   -2.417267    4.952534    1.159201
 H   -3.543385    2.594770    0.884057
 H   -6.515456   -2.672836   -1.365317
 H   -3.494298   -3.172124   -1.837028
 H   -1.916299    2.280129   -2.464308
 H   -3.028039    0.355561    3.639212
 H   -1.057507   -1.387238    4.257108
