63 
6g4y_ligand_ani.xyz
 C   -7.707467   -0.255525    0.685632
 C    1.184666    3.916025   -0.605201
 C   -6.726159   -0.477302   -0.478741
 C   -2.181922    3.816548    0.456106
 C   -5.482594    0.305306   -0.314957
 C   -4.468529    0.951093   -0.191147
 C   -3.273943    1.727686   -0.036215
 C   -3.342411    3.078129    0.333613
 C   -0.937673    3.239847    0.203080
 N   -6.700362   -2.345996    0.949463
 C   -7.240539   -1.255026    1.747248
 C   -6.364624   -3.643076    1.481169
 O   -7.333606   -0.242136   -1.720557
 O    0.115598    4.090300    0.307839
 C    2.202677    2.913812   -0.118479
 N    1.699331    1.540944   -0.146564
 C    0.416822    1.083005   -0.237891
 N    0.394912   -0.219096   -0.415892
 C    1.682974   -0.640301   -0.429418
 C    1.955635   -2.089677   -0.683605
 N    0.866785   -2.877947   -0.658419
 O    3.083615   -2.534124   -0.903937
 C    2.531138    0.441629   -0.201370
 C    3.971627    0.563982    0.124845
 O    4.448650    1.536270    0.716286
 N    4.739246   -0.457709   -0.301768
 C    6.163419   -0.489025   -0.053719
 C    6.488592   -0.865308    1.396343
 C    7.989007   -1.074735    1.560180
 O    8.479406   -2.057643    0.671437
 C    8.288887   -1.683453   -0.677489
 C    6.812075   -1.492832   -1.006122
 C   -0.830228    1.868075   -0.103247
 C   -2.021362    1.150239   -0.237977
 C   -6.400495   -1.976019   -0.317552
 O   -5.970603   -2.679311   -1.214020
 H   -7.719995    0.778139    1.037889
 H   -8.701876   -0.513642    0.312332
 H    0.795755    3.625548   -1.590693
 H    1.664899    4.894955   -0.690792
 H   -2.204752    4.868008    0.724125
 H   -4.305067    3.545015    0.516497
 H   -6.464746   -0.821102    2.396629
 H   -8.059540   -1.612384    2.383063
 H   -5.543147   -3.581808    2.206650
 H   -6.054934   -4.272740    0.644624
 H   -7.235403   -4.094063    1.969950
 H   -6.830897   -0.761238   -2.368325
 H    2.542209    3.163319    0.888205
 H    3.075925    2.962022   -0.769704
 H   -0.048444   -2.466911   -0.559649
 H    0.976144   -3.856332   -0.875780
 H    4.275869   -1.296861   -0.651041
 H    6.562965    0.517444   -0.241897
 H    6.130851   -0.075085    2.064697
 H    5.965240   -1.795128    1.656335
 H    8.229635   -1.421060    2.569320
 H    8.517273   -0.119686    1.390958
 H    8.728628   -2.479097   -1.285211
 H    8.839073   -0.749496   -0.888334
 H    6.697228   -1.154348   -2.042825
 H    6.284207   -2.454032   -0.904649
 H   -1.958404    0.103761   -0.507003
