46 
6g5j_ligand_dft.xyz
 C    3.730991   -3.415023   -1.516574
 C    3.543495   -1.949924   -1.118397
 C    4.831188   -1.408609   -0.439596
 O    4.566934    0.946145   -0.846830
 C    2.328635   -1.699555   -0.238434
 C    1.955999   -2.562625    0.794059
 C    0.895677   -2.245244    1.637094
 C    0.203910   -1.048380    1.487202
 C    0.562863   -0.189661    0.453784
 C    1.595610   -0.526579   -0.416120
 C   -1.470586    1.193158    0.039147
 C   -2.468489    0.211860    0.017748
 C   -3.745447    0.652931   -0.265158
 C   -1.722198    2.550699   -0.252045
 C   -0.460667    3.225799   -0.205492
 C    0.479177    2.289791    0.122039
 C    1.935610    2.460369    0.375635
 C    4.620962    0.033521   -0.041262
 O    4.407693    0.176924    1.258951
 N   -0.120663    1.047787    0.284856
 C   -4.041442    2.003184   -0.528791
 C   -3.039337    2.949503   -0.527554
 O    2.466630    2.004961    1.384689
 N    2.610027    3.151139   -0.574898
 O   -4.863519   -0.171700   -0.323395
 C   -4.775546   -1.494094   -0.082301
 F   -5.993013   -2.001819   -0.208465
 F   -4.329414   -1.765343    1.152817
 F   -3.963991   -2.123735   -0.943880
 H    2.821019   -3.815516   -1.973717
 H    4.548067   -3.509466   -2.239225
 H    3.982291   -4.041805   -0.654004
 H    3.407206   -1.364031   -2.035028
 H    5.659321   -1.468976   -1.152077
 H    5.069594   -2.007424    0.444035
 H    2.499924   -3.488612    0.953760
 H    0.621788   -2.924862    2.437992
 H   -0.587918   -0.769013    2.174545
 H    1.858843    0.155117   -1.220501
 H   -2.234575   -0.826156    0.210433
 H   -0.277412    4.282653   -0.340959
 H    3.954451    1.043031    1.403348
 H   -5.071541    2.269942   -0.736252
 H   -3.268257    3.988542   -0.742474
 H    2.172392    3.268506   -1.476484
 H    3.612687    2.996304   -0.584565
