33 
6g6t_ligand_ani.xyz
 C   20.306234    0.985300  -16.406596
 C   20.256464   -0.225435  -17.090260
 C   20.501295    2.191021  -17.062092
 C   20.512002    1.006616  -19.165639
 O   19.405672   -1.374325  -15.204756
 C   20.085180   -1.440814  -16.222456
 N   20.763900   -2.556955  -16.584510
 C   20.733422   -3.778725  -15.806080
 C   19.978736   -4.916978  -16.499642
 C   18.520582   -4.602110  -16.846980
 C   17.644030   -4.308795  -15.629731
 C   20.329667   -0.190697  -18.484055
Cl   20.141051   -1.621238  -19.461500
 C   20.610544    2.198697  -18.457456
Cl   20.852820    3.651835  -19.352737
 S   20.604676    3.713844  -16.141641
 O   21.956279    4.227331  -16.278332
 O   19.440680    4.517380  -16.470520
 N   20.420739    3.218771  -14.556261
 H   20.186248    0.957652  -15.332114
 H   20.579607    1.009709  -20.247831
 H   21.337930   -2.526198  -17.411285
 H   21.760951   -4.098753  -15.597269
 H   20.265219   -3.525984  -14.852380
 H   20.015421   -5.799349  -15.844548
 H   20.516613   -5.193687  -17.416428
 H   18.479512   -3.755250  -17.543382
 H   18.107356   -5.462248  -17.388745
 H   16.601283   -4.170023  -15.932934
 H   17.670513   -5.138588  -14.912790
 H   17.963653   -3.397774  -15.113041
 H   21.266772    3.409334  -14.030683
 H   19.610949    3.670438  -14.145325
