33 
6g6t_ligand_xtb.xyz
 C   -0.638069   -0.662853   -0.442056
 C    0.468929    0.163327   -0.599821
 C   -1.853564   -0.134964   -0.061880
 C   -0.893419    2.070011    0.027614
 O    2.351425   -0.024783   -2.061044
 C    1.784873   -0.408718   -1.063713
 N    2.229506   -1.408343   -0.272227
 C    3.531088   -2.013859   -0.446668
 C    4.496317   -1.613286    0.669687
 C    4.767588   -0.110295    0.683095
 C    5.737429    0.277014    1.791904
 C    0.325609    1.532499   -0.363618
Cl    1.680557    2.570141   -0.519131
 C   -1.984739    1.225483    0.175170
Cl   -3.510847    1.813396    0.655971
 S   -3.315717   -1.151062    0.169064
 O   -3.647985   -1.167767    1.560178
 O   -4.303493   -0.784482   -0.797199
 N   -2.723210   -2.675284   -0.228139
 H   -0.565717   -1.722389   -0.629778
 H   -0.991645    3.126351    0.215920
 H    1.739644   -1.608197    0.586089
 H    3.905194   -1.669408   -1.412976
 H    3.416612   -3.102309   -0.474017
 H    5.434330   -2.151790    0.524628
 H    4.082173   -1.919536    1.634297
 H    3.828413    0.430057    0.820996
 H    5.177202    0.187569   -0.283662
 H    5.334709    0.005825    2.765741
 H    6.690121   -0.231587    1.662163
 H    5.916558    1.349055    1.782363
 H   -2.862611   -3.325691    0.528588
 H   -3.134492   -3.015596   -1.082850
