37 
6g6y_ligand_dft.xyz
 C   -1.460896   -0.471762    0.412524
 C   -5.047963   -1.210943   -0.363564
 C    0.529047    2.294816   -0.664668
 C    1.640201    1.064559    2.216266
 C    0.875913    0.379297    1.078087
 C    1.744374   -0.477823    0.160193
 C    2.813525   -1.197854    0.703201
 C    3.599889   -2.012525   -0.101877
 C    3.332436   -2.125305   -1.463396
 C    2.271783   -1.416128   -2.014065
 C    1.482498   -0.599165   -1.209123
 C   -3.658279   -0.664295   -0.512780
 C    1.938784    2.789358   -0.553828
 N   -2.836937   -0.739591    0.607597
 N   -1.270409    1.002273    0.082543
 N    0.076700    1.390218    0.321321
 O   -3.201318   -0.171327   -1.529057
 O   -0.270936    2.659030   -1.502123
 S   -0.441519   -0.663522    1.881594
 H   -1.056135   -1.004189   -0.452539
 H   -5.024694   -2.293041   -0.533219
 H   -5.691399   -0.757088   -1.117294
 H   -5.459598   -1.030326    0.633384
 H    1.965227    0.333914    2.960385
 H    2.533756    1.563180    1.836172
 H    0.995822    1.792844    2.712270
 H    3.039785   -1.136937    1.762331
 H    4.427170   -2.558993    0.338675
 H    3.950099   -2.758890   -2.090984
 H    2.056383   -1.488987   -3.074939
 H    0.680043   -0.043069   -1.686399
 H    2.135888    3.420023   -1.420336
 H    2.657236    1.966100   -0.530162
 H    2.054480    3.383884    0.357444
 H   -3.161783   -1.124799    1.483492
 H   -1.509867    1.210794   -0.908540
 H   -1.903433    1.556630    0.672146
