55 
6g7f_ligand_ani.xyz
 C   -3.254356   -0.596648   -0.587911
 C   -4.272589   -1.529345    0.096942
 C   -4.818962   -2.558814   -0.894185
 C   -5.404797   -0.736147    0.748506
 C    0.929620    3.549442    0.068197
 C    1.155558    3.761358    1.566103
 C    2.800055   -1.021888    0.294240
 C    2.334445   -2.410780    0.777491
 C    1.753439   -2.305987    2.190700
 C   -2.081637   -1.412926   -1.083522
 O   -1.143114   -1.708128   -0.364552
 C   -2.746808    0.529675    0.343465
 O   -2.292794    0.053438    1.594890
 C   -1.661063    1.320756   -0.393372
 O   -1.820898    1.689456   -1.547513
 N   -0.533636    1.539267    0.326840
 C    0.666642    2.074350   -0.285463
 C   -0.216203    4.422387   -0.443459
 C    1.899004    1.204323   -0.003618
 O    3.027829    1.674134    0.003205
 N    1.671049   -0.119990    0.226760
 C    3.472935   -1.082090   -1.075764
 O    4.808812   -1.217374   -0.980138
 O    2.893976   -1.037637   -2.132580
 C    3.467791   -3.435214    0.742312
 H   -3.716790   -0.113284   -1.455554
 H   -3.738775   -2.068454    0.891446
 H   -5.597091   -3.170084   -0.424473
 H   -4.041510   -3.238261   -1.257293
 H   -5.267495   -2.060339   -1.762042
 H   -6.155342   -1.413261    1.169487
 H   -5.909906   -0.095120    0.014658
 H   -5.033651   -0.103823    1.562087
 H    1.853614    3.815520   -0.458886
 H    1.354531    4.819307    1.770289
 H    2.011283    3.181439    1.926559
 H    0.269901    3.473223    2.146579
 H    3.537399   -0.615098    0.994494
 H    1.536385   -2.741495    0.095058
 H    1.402694   -3.284061    2.536841
 H    2.519107   -1.957501    2.895584
 H    0.910701   -1.608172    2.234143
 H   -2.099753   -1.759478   -2.138687
 H   -3.566197    1.226467    0.556778
 H   -1.783276   -0.749915    1.402411
 H   -0.504417    1.169177    1.265797
 H    0.477963    2.008758   -1.366217
 H    0.030068    5.483613   -0.331563
 H   -0.429571    4.227805   -1.500098
 H   -1.136801    4.229636    0.119192
 H    0.776251   -0.512319   -0.045583
 H    5.138439   -1.243372   -1.894087
 H    4.310786   -3.102463    1.359495
 H    3.121405   -4.394729    1.139774
 H    3.839225   -3.604476   -0.271870
