26 
6g91_ligand_dft.xyz
 C   -3.166239   -0.114426   -0.053853
 C   -2.804544    1.117350    0.486475
 N   -1.544303    1.515914    0.552976
 C   -0.620280    0.661723    0.065627
 C    1.810514    0.264662   -0.222844
 C    3.023634    1.145568   -0.521504
 C    3.441116   -1.489036    0.517551
 C    2.163551   -0.737343    0.884132
 C   -2.137838   -0.922705   -0.517809
Cl   -4.829045   -0.619761   -0.130303
 N    0.664562    1.090907    0.105374
 C    4.246926    0.269983   -0.793871
 O    4.516809   -0.604494    0.278517
 N   -0.863908   -0.551264   -0.461368
 H   -3.559705    1.796304    0.876897
 H    1.549704   -0.298971   -1.126206
 H    3.236931    1.785935    0.345299
 H    2.823496    1.795685   -1.380664
 H    3.263848   -2.113895   -0.375272
 H    3.759264   -2.145750    1.330867
 H    1.336070   -1.440104    1.027044
 H    2.319784   -0.195308    1.825171
 H   -2.347513   -1.901303   -0.944188
 H    0.810969    1.950678    0.613537
 H    5.142359    0.882332   -0.926111
 H    4.088593   -0.307275   -1.721655
