28 
6g92_ligand_ani.xyz
 C   16.168860   10.302358   41.554814
 C   14.714014   10.405307   41.215373
 C   13.651137    9.578700   41.534363
 N   13.764653    8.385411   42.266795
 C   12.815413    7.715759   42.989155
 C   12.378689    5.936412   44.317515
 C   11.044733    6.325779   44.464603
 C   10.714768    7.489251   43.780206
 C   12.526497   10.173665   40.915673
 C   14.885225   12.520682   39.859070
 N   13.266832    6.605454   43.597278
 C   10.054453    5.557784   45.286642
 N   11.567993    8.193208   43.039128
 N   12.866466   11.275619   40.265452
 N   14.190918   11.401359   40.454850
 H   16.615932   11.290189   41.720882
 H   16.318313    9.724148   42.471863
 H   16.741686    9.811304   40.757371
 H   14.676388    7.951459   42.301041
 H   12.747865    5.035303   44.810443
 H    9.696290    7.877923   43.828237
 H   11.501833    9.832430   40.926271
 H   14.139990   13.095905   39.312372
 H   15.343246   13.154614   40.625339
 H   15.660389   12.178012   39.167006
 H    9.936738    4.534564   44.914622
 H   10.370821    5.492794   46.333024
 H    9.073856    6.040606   45.260612
