63 
6g9h_ligand_ani.xyz
 C   -0.951740    8.714679   46.463498
 C    1.365284    9.144185   47.121514
 C    1.582829    9.536603   45.646861
 C    3.857007   10.658117   45.736896
 C    5.224275   10.048219   45.535932
 C    7.596099    9.786327   45.431214
 C    7.454818    8.442170   45.046502
 C    6.176335    7.911690   44.873370
 C    5.088489    8.731160   45.120340
 C    3.642551    8.408004   45.017470
 C    8.680978    7.635544   44.795862
 C   12.822866   10.034482   41.977004
 C   12.618061   11.328031   41.197270
 C   10.502764   10.669585   40.448742
 C   10.564346    9.326445   41.167906
 C   10.084071    5.706714   44.928225
 C    8.889801    6.335420   45.281269
 C    0.950483    6.866653   48.962331
 N    0.120652    8.665402   47.446673
 O    2.273543    9.278905   47.928118
 N    2.977837    9.583734   45.298730
 C    6.492637   10.593204   45.691964
 O    3.112119    7.346707   44.749868
 N    9.637304    8.237322   44.083764
 C   10.744127    7.541669   43.795898
 N   11.707701    8.165972   43.067033
 C   11.480890    9.433208   42.395853
 O   11.785954   11.127043   40.072657
 N   11.013831    6.282308   44.181831
Cl    7.790378    5.506485   46.334158
 C   -0.066106    8.008563   48.776600
 C    0.104611    9.032681   49.909264
 C   -1.470156    7.404252   48.887733
 H   -1.918665    8.747599   46.961948
 H   -0.871359    9.628966   45.871803
 H   -0.940681    7.853900   45.776935
 H    1.126452   10.519270   45.464798
 H    1.112678    8.804039   44.987483
 H    3.665047   10.901412   46.788364
 H    3.702617   11.562076   45.135963
 H    8.597486   10.198135   45.521316
 H    6.019256    6.888033   44.545656
 H   13.347280    9.311771   41.335525
 H   13.442847   10.212259   42.863129
 H   13.566935   11.715190   40.815031
 H   12.177013   12.096100   41.857160
 H   10.017449   11.416781   41.102102
 H    9.917958   10.595470   39.527340
 H    9.560289    9.016764   41.480049
 H   10.958574    8.567152   40.479057
 H   10.284680    4.691981   45.270755
 H    0.756208    6.362131   49.915785
 H    0.855005    6.128017   48.158206
 H    1.973050    7.248192   48.971906
 H    6.630091   11.626773   46.000607
 H   12.429799    7.552621   42.721045
 H   10.993593   10.093693   43.125889
 H   -0.123354    8.552172   50.868189
 H    1.124010    9.419442   49.943092
 H   -0.588352    9.870230   49.772546
 H   -1.544644    6.826238   49.814610
 H   -2.244718    8.177748   48.931643
 H   -1.685184    6.726363   48.055722
