63 
6g9h_ligand_dft.xyz
 C    7.041633   -1.166253   -1.617829
 C    5.200467   -0.649224   -0.084048
 C    4.238060   -1.234813   -1.143503
 C    2.242401   -1.732265    0.348058
 C    0.914481   -1.029710    0.449396
 C   -1.285809   -0.443834    1.155514
 C   -1.321422    0.614055    0.232518
 C   -0.227244    0.836626   -0.605269
 C    0.869429   -0.000288   -0.480539
 C    2.143595    0.019188   -1.245061
 C   -2.565351    1.422688    0.141513
 C   -7.423418   -1.212074    0.870757
 C   -7.508081   -2.738376    0.850841
 C   -6.025185   -2.925238   -0.946582
 C   -5.838631   -1.413875   -1.054865
 C   -3.869662    3.405533   -0.102772
 C   -2.610870    2.813122   -0.005609
 C    7.340535    1.351376    0.660543
 N    6.543805   -0.789314   -0.300773
 O    4.723833   -0.116682    0.908610
 N    2.870827   -1.049083   -0.768732
 C   -0.171392   -1.265834    1.281316
 O    2.497347    0.786590   -2.121491
 N   -3.705696    0.727798    0.225906
 C   -4.862491    1.395246    0.144693
 N   -6.013409    0.688188    0.270252
 C   -6.074130   -0.759918    0.312804
 O   -7.302239   -3.260291   -0.442163
 N   -5.000111    2.723726   -0.042933
Cl   -1.206709    3.845565   -0.012750
 C    7.507930   -0.175428    0.671195
 C    7.276075   -0.751628    2.077428
 C    8.952291   -0.516754    0.275115
 H    7.366011   -0.290701   -2.195087
 H    7.882235   -1.856118   -1.530789
 H    6.272112   -1.676687   -2.191651
 H    4.442712   -2.301957   -1.296594
 H    4.363597   -0.717920   -2.099868
 H    2.129624   -2.804990    0.140836
 H    2.838173   -1.606818    1.258737
 H   -2.157892   -0.612480    1.778524
 H   -0.222284    1.623313   -1.351458
 H   -7.561882   -0.837686    1.891430
 H   -8.233812   -0.807571    0.249057
 H   -8.497571   -3.077874    1.167148
 H   -6.764159   -3.158288    1.550717
 H   -5.241675   -3.352686   -0.296387
 H   -5.947787   -3.403485   -1.925986
 H   -6.559479   -1.010241   -1.776786
 H   -4.829651   -1.179074   -1.409175
 H   -3.950480    4.482860   -0.231002
 H    7.523059    1.750611   -0.343892
 H    6.333469    1.631325    0.973319
 H    8.061407    1.812597    1.344302
 H   -0.161690   -2.068946    2.012470
 H   -6.856116    1.208448    0.075802
 H   -5.280650   -1.093947    0.992131
 H    8.041985   -0.363050    2.757159
 H    6.294757   -0.482231    2.463588
 H    7.362111   -1.843650    2.055840
 H    9.235139   -0.110582   -0.700522
 H    9.619878   -0.070022    1.017480
 H    9.134218   -1.596829    0.278035
