64 
6g9j_ligand_xtb.xyz
 C   -3.663330    3.350983   -0.650543
 C   -3.889750    2.057298    0.120525
 C   -4.768348   -1.295531   -1.321083
 C   -3.180456   -2.661890    0.077206
 C   -0.827230   -3.241675    1.060729
 C    0.530648   -2.983909    0.948322
 C    1.027067   -2.139348   -0.043729
 C    0.158845   -1.546444   -0.956307
 C   -1.190634   -1.810884   -0.840636
 C   -2.326681   -1.242513   -1.586629
 N    2.697716   -0.478343   -0.240010
 C    3.968460   -0.069805   -0.271139
 C    3.188722    2.255992   -0.419100
 C    2.950130    2.803894    0.994190
 C    1.900275    3.915462    0.933271
 C    2.463603    4.485042   -1.258374
 C    3.558556    3.417048   -1.341054
 C    4.800131   -2.162640   -0.049437
 C   -2.673777    1.600952    0.902713
 C   -0.365967    0.913322    0.979418
 C   -1.445474    1.419513    0.276811
 N   -4.255550    0.989137   -0.801589
 C   -4.941264   -0.089952   -0.382563
 O   -5.566685   -0.156223    0.655366
 N   -3.445206   -1.819673   -1.069173
 C   -1.688011   -2.638335    0.166976
 O   -2.322167   -0.396027   -2.465288
 C    2.451563   -1.773618   -0.096502
 N    4.214594    1.239481   -0.437228
 O    2.283528    4.949901    0.057365
 N    5.037665   -0.875427   -0.169402
 C    3.510599   -2.681719   -0.003322
Cl    3.265142   -4.389906    0.108416
 C   -2.801523    1.257406    2.242092
 C   -1.723483    0.748662    2.945396
 C   -0.504409    0.574269    2.314283
 H   -4.580418    3.651935   -1.150701
 H   -2.887381    3.221191   -1.400764
 H   -3.358958    4.139697    0.032477
 H   -4.732511    2.174233    0.810062
 H   -5.514173   -2.059925   -1.100064
 H   -4.830070   -0.992525   -2.368291
 H   -3.577973   -3.670970   -0.082446
 H   -3.649954   -2.246843    0.977585
 H   -1.198338   -3.882825    1.845732
 H    1.211257   -3.417897    1.664451
 H    0.533076   -0.889957   -1.725447
 H    2.272347    1.776093   -0.777240
 H    2.605803    2.008108    1.654246
 H    3.884432    3.210116    1.387262
 H    1.774721    4.384728    1.910809
 H    0.934931    3.489940    0.617523
 H    1.518396    4.069519   -1.641880
 H    2.731548    5.362460   -1.850158
 H    3.664173    3.072994   -2.369897
 H    4.505911    3.852562   -1.016562
 H    5.666091   -2.807452    0.016342
 H    0.580977    0.758789    0.485142
 H   -1.331087    1.655681   -0.770940
 H   -3.661006    0.884795   -1.617375
 H    5.179023    1.521512   -0.353225
 H   -3.757123    1.376156    2.731231
 H   -1.839366    0.481704    3.985680
 H    0.336751    0.167666    2.856562
