67 
6g9m_ligand_dft.xyz
 C    5.109250    1.997391   -0.794428
 C    5.164696    0.715711    0.052763
 C    4.337763    0.918454    1.331477
 N    4.547992   -0.340533   -0.761397
 C    4.349988   -1.609161   -0.317398
 C    3.373661   -2.408476   -1.190465
 C    0.129003   -1.644791    0.415541
 C   -0.950928   -1.667097    1.287029
 C   -1.932107   -0.692453    1.140235
 C   -1.839150    0.307176    0.158412
 C   -0.754718    0.314496   -0.719879
 C    0.205244   -0.674283   -0.575816
 C    1.454444   -0.876551   -1.349344
 O    1.934906   -0.170633   -2.227256
 C   -6.745579   -0.301482    0.416871
 C   -8.134448   -0.505289    1.021749
 C   -8.459662   -1.997902    1.082739
 C   -7.071860   -2.505073   -0.728792
 C   -6.651947   -1.049565   -0.919141
 C    9.369994   -0.134485    0.708832
 C    8.766947   -0.418981   -0.513860
 C    7.414294   -0.164197   -0.700974
 O    4.819917   -2.078590    0.707138
 N    2.017726   -2.023923   -0.854069
 C    1.335734   -2.540554    0.323388
 C   -2.945862    1.295171    0.056117
 N   -4.175730    0.789953    0.200068
 C   -5.217401    1.626559    0.114220
 N   -6.458872    1.115347    0.297190
 O   -8.372224   -2.607419   -0.185059
 N   -5.150828    2.951773   -0.130541
 C   -3.931439    3.445424   -0.249272
 C   -2.777552    2.666892   -0.155698
Cl   -1.229375    3.463313   -0.245650
 C    6.633484    0.374910    0.325025
 C    7.247358    0.656316    1.544612
 C    8.603943    0.403339    1.736005
 H    5.576295    2.822633   -0.250140
 H    5.647120    1.864570   -1.738481
 H    4.070161    2.268968   -1.015858
 H    4.407064    0.042205    1.979840
 H    4.669900    1.802315    1.884417
 H    3.289452    1.074293    1.055275
 H    3.946578   -0.036614   -1.521597
 H    3.511833   -3.471559   -0.986510
 H    3.525209   -2.216239   -2.256047
 H   -1.036685   -2.419971    2.064842
 H   -2.797372   -0.691314    1.794646
 H   -0.657127    1.052092   -1.508615
 H   -5.997847   -0.724257    1.098715
 H   -8.886437   -0.007892    0.394218
 H   -8.185728   -0.064822    2.023953
 H   -9.481864   -2.159444    1.433729
 H   -7.773714   -2.496449    1.790124
 H   -6.349099   -3.019393   -0.071216
 H   -7.096097   -3.036377   -1.683211
 H   -5.628370   -0.995701   -1.303958
 H   -7.318994   -0.572022   -1.647494
 H   10.426680   -0.334865    0.859291
 H    9.351760   -0.844356   -1.324494
 H    6.948071   -0.399417   -1.653534
 H    1.068981   -3.595797    0.188427
 H    1.982190   -2.462701    1.207489
 H   -7.216273    1.754527    0.105982
 H   -3.847959    4.515859   -0.424838
 H    6.670966    1.066714    2.366802
 H    9.058980    0.624523    2.697253
