71 
6g9n_ligand_ani.xyz
 C    4.852407   -3.860338   -0.390625
 C    3.967848   -2.661310   -0.695008
 C    0.526183   -3.381162    0.484798
 C   -0.551179   -3.806773    1.250285
 C   -1.801518   -3.233725    1.024490
 C   -1.981430   -2.231512    0.055627
 C    0.332384   -2.421806   -0.500715
 C    1.627416   -2.142152   -1.155164
 C   -3.285770   -1.543353   -0.142648
 C   -4.375615    0.467829   -0.328591
 C   -2.090330    4.808233    0.451134
 C   -1.914418    3.322704    2.246615
 C   -3.034813    2.425151    1.736035
 C   -5.637529   -1.391952   -0.525164
 C   -4.512087   -2.195091   -0.338865
 C    4.316379   -1.465433    0.217620
 C    3.263518    0.900906    1.896326
 C    3.785215    4.312628   -1.291429
 C    2.486084    4.272364   -1.785922
 C    1.662975    3.171553   -1.542821
 C    0.261469    3.097903   -2.103504
 C    2.182325    2.113993   -0.794910
 N    2.547922   -2.970029   -0.565041
 C    1.990872   -3.752991    0.534483
 C   -0.892730   -1.816311   -0.710666
 O    1.889940   -1.306097   -2.011996
 N   -3.234261   -0.208912   -0.158296
 N   -4.299908    1.829463   -0.340974
 C   -3.150047    2.532480    0.206943
 C   -3.211990    4.005559   -0.200454
 O   -2.099808    4.669289    1.858107
 N   -5.592996   -0.067777   -0.519938
Cl   -4.682967   -3.918388   -0.411004
 O    4.904357   -1.641807    1.286225
 N    3.906329   -0.260910   -0.226770
 C    4.005416    0.981753    0.538533
 O    4.061064    0.376499    2.915160
 C    3.487172    2.130788   -0.301517
 C    4.284095    3.247557   -0.548214
 H    4.550934   -4.711927   -1.008053
 H    4.794109   -4.136736    0.665535
 H    5.895339   -3.617796   -0.611314
 H    4.091890   -2.352447   -1.738467
 H   -0.433823   -4.567083    2.017812
 H   -2.644910   -3.564911    1.623069
 H   -1.113645    4.480159    0.053728
 H   -2.199055    5.877754    0.246018
 H   -0.941581    2.957298    1.869496
 H   -1.877776    3.317597    3.340019
 H   -2.844158    1.384176    2.022886
 H   -3.981288    2.739055    2.196647
 H   -6.612374   -1.851870   -0.683616
 H    2.973301    1.915898    2.193677
 H    2.331546    0.321757    1.752354
 H    4.413378    5.179187   -1.485276
 H    2.103767    5.106749   -2.370454
 H    0.256530    2.721747   -3.135106
 H   -0.218990    4.083791   -2.119361
 H   -0.363834    2.422156   -1.504377
 H    1.543301    1.255229   -0.589210
 H    2.451537   -3.470721    1.490491
 H    2.154568   -4.824664    0.379146
 H   -1.004025   -1.025104   -1.447494
 H   -5.200511    2.280274   -0.269865
 H   -2.256381    2.068664   -0.234656
 H   -4.177881    4.418125    0.123329
 H   -3.158844    4.090749   -1.293014
 H    3.376074   -0.237402   -1.093795
 H    5.062262    1.157706    0.778601
 H    4.451407   -0.445980    2.558566
 H    5.301745    3.280298   -0.163119
