61 
6g9u_ligand_ani.xyz
 F    8.752593  -29.561210  -60.105195
 C    9.513547  -28.675278  -59.452242
 C   10.640359  -28.119174  -60.053384
 S   11.161401  -28.565151  -61.679326
 C   11.435709  -30.350578  -61.432671
 C   12.568944  -30.689637  -60.453601
 C   13.938979  -30.318174  -60.962863
 C   14.680157  -31.242484  -61.703288
 C   15.924796  -30.910577  -62.217165
 C   16.454772  -29.639168  -62.000720
 C   17.788480  -29.337359  -62.578740
 O   18.208651  -28.079738  -62.327248
 O   18.457749  -30.118106  -63.217659
 C   15.726088  -28.704964  -61.261080
 C   14.481108  -29.045897  -60.749897
 C    9.153409  -28.332787  -58.158535
 F    8.066035  -28.915952  -57.643943
 C    9.891526  -27.437895  -57.400048
 S    9.326835  -27.170375  -55.750150
 O    9.362429  -28.439213  -55.048785
 N    7.748260  -26.703359  -55.993946
 O   10.011527  -26.003277  -55.194072
 C   11.078357  -26.888988  -57.940607
 C   11.353605  -27.205238  -59.281338
 F   12.411169  -26.597770  -59.852670
 N   11.902787  -26.098921  -57.190758
 C   13.351912  -26.068468  -57.279354
 C   13.972354  -27.468611  -57.090772
 C   15.464876  -27.552168  -57.451243
 C   16.428345  -27.584635  -56.253750
 C   16.141129  -26.612261  -55.106347
 C   16.257809  -25.116206  -55.408475
 C   15.281999  -24.532261  -56.441607
 C   13.822285  -24.986998  -56.291011
 H   10.493731  -30.794682  -61.100003
 H   11.657536  -30.738543  -62.431779
 H   12.534198  -31.768162  -60.254664
 H   12.370322  -30.186641  -59.499201
 H   14.276852  -32.238705  -61.874569
 H   16.507055  -31.624534  -62.792008
 H   19.079248  -28.009666  -62.751905
 H   16.144188  -27.716934  -61.097863
 H   13.923429  -28.304277  -60.181518
 H    7.100144  -27.471660  -55.861392
 H    7.527292  -25.897654  -55.419984
 H   11.501933  -25.831635  -56.297917
 H   13.618028  -25.721904  -58.283229
 H   13.793248  -27.821254  -56.065286
 H   13.412634  -28.162727  -57.730144
 H   15.647469  -28.454949  -58.050475
 H   15.711533  -26.715667  -58.117243
 H   16.411681  -28.596606  -55.827705
 H   17.452900  -27.426786  -56.618029
 H   15.140257  -26.818681  -54.705723
 H   16.835807  -26.843744  -54.287921
 H   17.284816  -24.887538  -55.725318
 H   16.109249  -24.584571  -54.459081
 H   15.624795  -24.750079  -57.460509
 H   15.326831  -23.439830  -56.353790
 H   13.153182  -24.131815  -56.451560
 H   13.628662  -25.321882  -55.260695
