22 
6gcl_ligand_xtb.xyz
 C    3.321380   -0.274417   -1.619628
 S    2.894506   -0.201342    0.147383
 O    3.029826   -1.523955    0.694722
 O    3.651784    0.863603    0.746259
 C    1.161823    0.247263    0.122310
 C    0.222970   -0.764732    0.110164
 C   -1.105969   -0.396854    0.054446
 S   -2.519769   -1.414057    0.030377
 C   -3.500149    0.078426   -0.042386
 N   -4.835630   -0.016700   -0.135985
 N   -2.839328    1.176883   -0.044433
 C   -1.493811    0.966184    0.007235
 C   -0.517768    1.958812    0.025079
 C    0.811046    1.588506    0.081826
 H    4.360080   -0.570323   -1.697094
 H    2.679798   -1.008378   -2.089325
 H    3.172057    0.710735   -2.041311
 H    0.541313   -1.793062    0.163573
 H   -5.283133   -0.896689    0.047244
 H   -5.371387    0.828811   -0.039516
 H   -0.818463    2.993365   -0.002562
 H    1.598644    2.324320    0.115626
