70 
6gcr_ligand_ani.xyz
 C   -3.416204    5.247243   86.761944
 C   -4.296759    6.072380   86.028897
 C   -5.575849    5.594028   85.801309
 N   -6.000661    4.405861   86.236920
 N   -3.837319    4.062203   87.192368
 C   -5.088210    3.698701   86.916490
 C   -4.800761    1.593601   88.214375
 C   -5.521506    0.817375   89.128002
 C   -4.871107   -0.061147   89.980952
 C   -3.486362   -0.218187   89.930505
 C   -2.782204    0.531391   88.988894
 C   -3.415695    1.425208   88.134973
 C   -2.768909   -1.190825   90.831296
 C   -3.001072   -2.016161   93.165868
 C   -3.044800   -2.030458   94.546451
 C   -2.870068   -3.513738   94.632454
 C   -2.810042   -3.487640   93.052455
 C   -3.356375    0.328417   95.255429
 C   -3.273921    1.083006   96.582979
 C   -3.840579    0.346500   98.857969
 C   -4.933859   -0.018758   99.849990
 C   -6.365850   -0.059070   99.332663
 C   -1.165630    4.919060   87.739924
 C    0.197436    5.105203   87.421625
 C    1.162397    4.396085   88.138472
 C    0.816999    3.526114   89.161410
 C   -0.527061    3.361972   89.478852
 C   -1.508760    4.057789   88.786713
 C    0.624235    6.069584   86.355259
 C    2.198533    6.529827   84.546124
 N   -5.506030    2.479441   87.383065
 N   -3.183123   -1.044152   92.227124
 N   -3.173680   -1.092969   95.505604
 N   -4.216868    0.572477   97.561493
 N   -2.134721    5.631472   87.024350
 N    1.763715    5.746449   85.683452
 O   -2.679226   -4.274726   92.147187
 O   -2.809512   -4.327322   95.514387
 O   -2.675443    0.398776   99.218037
 O   -0.003445    7.091933   86.085045
Cl   -3.810267    7.631150   85.448536
 H   -6.289790    6.197317   85.243574
 H   -6.603099    0.921731   89.181356
 H   -5.455772   -0.636464   90.694326
 H   -1.701990    0.413753   88.920963
 H   -2.837188    1.992881   87.415950
 H   -2.977991   -2.227410   90.542221
 H   -1.681979   -1.044195   90.727638
 H   -2.566478    0.694798   94.588079
 H   -4.324922    0.526931   94.767946
 H   -2.285388    0.952599   97.026887
 H   -3.426440    2.156751   96.412190
 H   -4.840507    0.692161  100.679470
 H   -4.647341   -0.993111  100.263921
 H   -7.040323   -0.360026  100.139874
 H   -6.702470    0.921450   98.978255
 H   -6.483886   -0.784523   98.520423
 H    2.213556    4.559427   87.908335
 H    1.587518    2.983292   89.701199
 H   -0.824994    2.679944   90.272617
 H   -2.548676    3.932368   89.060154
 H    3.285858    6.467848   84.451466
 H    1.734730    6.200833   83.607332
 H    1.911332    7.567381   84.719269
 H   -6.493427    2.313079   87.255674
 H   -3.174491   -0.092579   92.578901
 H   -3.416964   -1.390775   96.443699
 H   -5.197934    0.680676   97.353955
 H   -1.765082    6.459125   86.556655
 H    2.104703    4.801642   85.767828
