38 
6gdg_ligand_ani.xyz
 C   -3.208219    0.377524    0.242213
 O   -3.738801    0.214673    1.330212
 N   -3.056476    1.580939   -0.361540
 C   -3.375660    2.822902    0.318805
 C   -2.156948    3.456029    0.985755
 C   -2.665120   -0.792733   -0.590515
 O   -1.509430   -0.342618   -1.323019
 C   -2.216903   -1.964681    0.273346
 O   -2.381185   -3.142507   -0.479144
 C   -0.731542   -1.673911    0.471008
 O   -0.028652   -2.862901    0.695485
 C   -0.348932   -1.009753   -0.862187
 N    0.735905   -0.053192   -0.708062
 C    0.795785    1.269563   -1.113915
 N    1.943883    1.843776   -0.891678
 C    2.705879    0.845149   -0.307369
 C    4.028304    0.804231    0.169367
 N    4.833915    1.883213    0.082348
 N    4.503973   -0.332306    0.703087
 C    3.690070   -1.383747    0.761571
 N    2.416992   -1.472432    0.354150
 C    1.979259   -0.329915   -0.181926
 H   -2.493534    1.607807   -1.198393
 H   -3.817646    3.513408   -0.408692
 H   -4.140793    2.583308    1.061168
 H   -1.715841    2.770841    1.717309
 H   -1.387592    3.703337    0.243651
 H   -2.434837    4.378798    1.505903
 H   -3.422332   -1.126129   -1.308873
 H   -2.771164   -1.997741    1.221537
 H   -1.682608   -3.747106   -0.184572
 H   -0.578962   -0.946570    1.281593
 H    0.926475   -2.646610    0.670839
 H   -0.055606   -1.777683   -1.588696
 H   -0.060384    1.733006   -1.582377
 H    4.437145    2.763720   -0.207143
 H    5.731150    1.860918    0.539678
 H    4.107887   -2.280408    1.203725
