49 
6gev_ligand_ani.xyz
 C    0.655925    3.494748    0.621305
 C   -0.564510    3.328484   -0.285730
 C   -0.368049    4.097198   -1.592778
 C   -3.713594    0.213688    0.377119
 C   -5.071612   -0.012500    0.196393
 C   -5.477089   -1.243662   -0.277334
 C   -4.564379   -2.244177   -0.579379
 C   -3.208200   -1.991582   -0.428762
 C   -2.748611   -0.747974    0.020349
 C   -0.394738   -1.206078   -0.447435
 C    2.575998   -1.000827    1.922307
 C    3.600144   -0.740150    1.023250
 C    3.335612   -0.657481   -0.347992
 C    2.035085   -0.823018   -0.809169
 N    4.415793   -0.399588   -1.205612
 C    5.723844   -0.479149   -0.813481
 C   -0.863923    1.857921   -0.603920
 C   -1.032570    0.933963    0.609972
 C   -2.112775    1.382303    1.570800
 O   -3.365691    1.417125    0.914409
 N   -1.372932   -0.437880    0.179654
 O   -0.611016   -1.912372   -1.418145
 C    0.999071   -1.058604    0.093502
 C    1.275943   -1.163391    1.458891
 O    6.657607   -0.268570   -1.560113
 C    5.906675   -0.930533    0.628320
 O    4.863569   -0.513650    1.496753
 F   -6.787776   -1.480405   -0.439173
 H    0.897522    4.554406    0.758888
 H    0.497511    3.062623    1.614770
 H    1.534226    3.006554    0.178023
 H   -1.441407    3.757093    0.223906
 H   -1.237059    3.992415   -2.251767
 H    0.509833    3.718566   -2.130944
 H   -0.209575    5.164986   -1.405807
 H   -5.788951    0.759784    0.449148
 H   -4.914718   -3.205212   -0.941203
 H   -2.503429   -2.771462   -0.679837
 H    2.815908   -1.055203    2.978134
 H    1.813747   -0.776083   -1.871894
 H    4.252360   -0.180982   -2.180219
 H   -0.045101    1.454325   -1.215125
 H   -1.776041    1.793940   -1.210073
 H   -0.092262    0.880074    1.161680
 H   -1.934080    2.392191    1.950303
 H   -2.157893    0.685534    2.419134
 H    0.462581   -1.352915    2.153545
 H    6.832166   -0.502675    1.013564
 H    5.989402   -2.027356    0.639438
