65 
6gfy_ligand_dft.xyz
 C    4.555850    4.141896   -1.078945
 C    3.733101    3.275086   -0.148054
 O    4.113145    2.969645    0.971020
 N    2.530099    2.859877   -0.660016
 C    1.763277    1.840234    0.026950
 C    0.233792    2.130031    0.033857
 C   -0.485118    0.981732    0.753708
 C    0.005696    3.434525    0.809187
 C   -0.336362    2.275014   -1.383568
 C    2.108637    0.493385   -0.609342
 O    2.078338    0.364053   -1.838257
 N    2.455139   -0.528358    0.203759
 C    2.718109   -0.448599    1.644348
 C    3.102829   -1.891953    2.021428
 O    3.929799   -1.985300    3.142214
 C    3.736205   -2.424613    0.737891
 F    5.032498   -1.903357    0.679530
 C    2.912227   -1.803705   -0.374605
 C    1.702514   -2.680646   -0.738606
 O    1.345795   -3.611535   -0.026607
 N    1.090532   -2.312853   -1.886205
 C   -0.199449   -2.869158   -2.264179
 C   -1.350836   -2.118110   -1.631173
 C   -1.966986   -1.061285   -2.301397
 C   -2.988672   -0.336346   -1.701561
 C   -1.775380   -2.431006   -0.337802
 C   -2.790650   -1.701880    0.268403
 C   -3.417892   -0.647609   -0.407211
 C   -4.488393    0.128347    0.240448
 S   -4.514590    1.866901    0.163327
 C   -5.965141    1.857715    1.104352
 N   -6.395584    0.685408    1.446706
 C   -5.569548   -0.308168    0.963301
 C   -5.941392   -1.733885    1.239341
 H    3.933023    4.750033   -1.741262
 H    5.198075    4.788813   -0.480230
 H    5.194928    3.500994   -1.696347
 H    2.403278    2.908865   -1.661632
 H    2.111981    1.869076    1.059832
 H   -1.555832    1.195494    0.825743
 H   -0.377871    0.028712    0.224199
 H   -0.110650    0.856054    1.776540
 H   -1.065173    3.662589    0.852221
 H    0.376113    3.353947    1.837755
 H    0.517877    4.274506    0.330033
 H    0.114430    3.122970   -1.912151
 H   -1.414478    2.462384   -1.324969
 H   -0.178391    1.371307   -1.976885
 H    3.547136    0.239445    1.846311
 H    1.838011   -0.115095    2.195785
 H    2.204356   -2.479247    2.224819
 H    4.802870   -1.672241    2.867363
 H    3.799340   -3.511062    0.688228
 H    3.523584   -1.603606   -1.259196
 H    1.366951   -1.411181   -2.269691
 H   -0.205550   -3.916530   -1.954648
 H   -0.274278   -2.835822   -3.355061
 H   -1.650089   -0.804414   -3.309589
 H   -3.466573    0.472775   -2.246775
 H   -1.284122   -3.236196    0.200766
 H   -3.085715   -1.933464    1.287200
 H   -6.460215    2.783505    1.372737
 H   -5.698172   -2.009279    2.271905
 H   -5.420585   -2.421212    0.568602
 H   -7.019728   -1.861747    1.112108
