65 
6gfy_ligand_ani.xyz
 C    4.048765    4.271080   -1.367384
 C    3.372623    3.359826   -0.365204
 O    3.898866    3.020981    0.683145
 N    2.101720    2.956686   -0.707967
 C    1.485776    1.881473    0.045796
 C   -0.056845    2.040288    0.175021
 C   -0.615364    0.834179    0.942880
 C   -0.342311    3.322082    0.973027
 C   -0.748705    2.141655   -1.193158
 C    1.917566    0.547007   -0.594368
 O    1.752086    0.344491   -1.796896
 N    2.501905   -0.388067    0.206905
 C    2.939002   -0.183426    1.592215
 C    3.506863   -1.551869    1.998152
 O    4.499860   -1.502210    2.983654
 C    3.997393   -2.139960    0.678445
 F    5.256950   -1.577545    0.428417
 C    3.029348   -1.635168   -0.377012
 C    1.891924   -2.640657   -0.639106
 O    1.644037   -3.550746    0.141122
 N    1.208438   -2.433454   -1.796325
 C   -0.051505   -3.126578   -2.012978
 C   -1.221174   -2.347369   -1.447539
 C   -1.804746   -1.317083   -2.189214
 C   -2.838302   -0.552139   -1.668636
 C   -1.686719   -2.568985   -0.150023
 C   -2.720597   -1.803230    0.374781
 C   -3.330720   -0.789192   -0.375053
 C   -4.421531    0.017334    0.195946
 S   -4.496148    1.737118    0.017416
 C   -5.932740    1.753135    0.959401
 N   -6.345077    0.591728    1.357579
 C   -5.501782   -0.406424    0.925206
 C   -5.833610   -1.827326    1.264963
 H    3.416684    5.133781   -1.602055
 H    4.991734    4.617667   -0.943281
 H    4.254755    3.738675   -2.303151
 H    1.864066    2.980734   -1.691171
 H    1.909075    1.959889    1.046521
 H   -1.683199    0.969252    1.144090
 H   -0.506882   -0.095810    0.374717
 H   -0.113528    0.709955    1.910759
 H   -1.423800    3.464196    1.085110
 H    0.093315    3.266592    1.978096
 H    0.071556    4.199847    0.468016
 H   -0.464429    3.056777   -1.724905
 H   -1.837773    2.161871   -1.053085
 H   -0.499142    1.283829   -1.825242
 H    3.697534    0.609073    1.655299
 H    2.096290    0.092903    2.235926
 H    2.688688   -2.171263    2.376650
 H    5.313451   -1.234260    2.531236
 H    4.109189   -3.224469    0.699558
 H    3.552698   -1.407837   -1.313865
 H    1.316152   -1.510534   -2.211010
 H    0.028049   -4.107118   -1.535949
 H   -0.177530   -3.282671   -3.090683
 H   -1.433463   -1.092912   -3.187515
 H   -3.275128    0.237707   -2.274574
 H   -1.225031   -3.336837    0.465258
 H   -3.048687   -1.987117    1.394434
 H   -6.443029    2.681934    1.184813
 H   -5.430969   -2.099182    2.248659
 H   -5.421015   -2.519252    0.524941
 H   -6.917162   -1.951707    1.311515
