14 
6gg3_ligand_ani.xyz
 N    1.396942   -1.081975    0.071154
 C    0.635439    0.180045    0.405352
 C   -0.810659   -0.150137    0.040262
 O   -1.656075    0.875568    0.181324
 C    1.171979    1.412439   -0.315031
 O   -1.146114   -1.254004   -0.327150
 H    1.934695   -1.439843    0.875848
 H    2.031096   -0.924269   -0.729000
 H    0.655343   -1.761305   -0.202301
 H    0.665056    0.333964    1.484402
 H   -2.538085    0.549471   -0.065267
 H    2.220814    1.584850   -0.053610
 H    0.599538    2.293767   -0.021669
 H    1.089904    1.310595   -1.403367
