24 
6gg4_ligand_ani.xyz
 N   -1.018532    1.032137   -1.166352
 C   -1.362770   -0.223741   -0.426357
 C   -2.818380   -0.041311   -0.017419
 O   -3.395220    1.012539   -0.170026
 C   -0.460853   -0.423787    0.808647
 C    1.000413   -0.253579    0.467394
 C    1.662032   -1.198065   -0.323162
 C    1.712467    0.864600    0.906002
 C    3.000911   -1.031672   -0.660907
 C    3.054140    1.036426    0.568373
 C    3.700511    0.087097   -0.217111
 O   -3.369325   -1.121923    0.544162
 H   -1.820182    1.669493   -0.967901
 H   -0.940376    0.869965   -2.184901
 H   -0.131921    1.416457   -0.806812
 H   -1.278430   -1.081478   -1.089613
 H   -0.743636    0.291993    1.590754
 H   -0.652340   -1.421209    1.213651
 H    1.116758   -2.069887   -0.682997
 H    1.209228    1.605062    1.526674
 H    3.499958   -1.777885   -1.274858
 H    3.590507    1.916493    0.913975
 H    4.746791    0.218579   -0.482383
 H   -4.281102   -0.883283    0.783022
