47 
6gji_ligand_dft.xyz
 O   -2.545872   -0.596809   -1.111001
 C   -3.250908   -0.357766   -0.158642
 O   -4.476387   -0.857035    0.019239
 C   -4.950894   -1.746009   -1.006690
 C   -6.337790   -2.200794   -0.606211
 C   -2.867182    0.566917    0.988439
 N   -1.529520    1.072099    0.840206
 C   -0.492473    0.308030    1.357810
 O   -0.663150   -0.420872    2.328725
 N    0.730864    0.484398    0.758102
 C    0.879919    0.965702   -0.604920
 C    1.025629    2.458619   -0.678453
 C    0.895548    3.394769    0.318855
 N    1.127346    4.573726   -0.302332
 C    1.132421    5.910758    0.251203
 N    1.384873    4.383967   -1.604597
 N    1.323596    3.107232   -1.836267
 C    1.907904   -0.111358    1.387776
 C    2.333819   -1.413819    0.751546
 C    3.537567   -1.526856    0.060038
 C    3.915265   -2.720583   -0.545747
 C    3.083299   -3.841968   -0.474698
 N    3.472460   -5.059450   -1.034957
 C    1.869875   -3.731962    0.221159
 C    1.504883   -2.538122    0.821758
 H   -4.253771   -2.584439   -1.094754
 H   -4.953527   -1.212387   -1.961925
 H   -6.312380   -2.725261    0.353149
 H   -7.016757   -1.347868   -0.517787
 H   -6.735843   -2.882961   -1.363609
 H   -2.924785    0.018803    1.931237
 H   -3.590591    1.387711    1.037327
 H   -1.356876    1.557018   -0.028092
 H    0.040808    0.620794   -1.220935
 H    1.767079    0.490124   -1.035381
 H    0.660060    3.312433    1.368319
 H    0.157506    6.145972    0.685275
 H    1.907091    6.003471    1.016449
 H    1.343849    6.596666   -0.568964
 H    1.658843   -0.257717    2.440024
 H    2.724582    0.618974    1.329134
 H    4.199580   -0.665975   -0.010793
 H    4.862029   -2.784641   -1.076512
 H    4.132277   -4.982238   -1.796383
 H    2.708979   -5.677647   -1.271566
 H    1.214740   -4.596965    0.293183
 H    0.561772   -2.463297    1.356470
