44 
6gjm_ligand_xtb.xyz
 O   -0.643045    0.324423    2.306900
 C   -0.542427    0.888587    1.230188
 N   -1.661669    1.309747    0.535670
 C   -2.928265    0.715605    0.882773
 C   -3.444765   -0.140300   -0.258824
 O   -4.561635   -0.777440    0.069579
 C   -5.154420   -1.617245   -0.927897
 C   -6.064096   -2.616419   -0.238561
 O   -2.905905   -0.208607   -1.335470
 N    0.658616    1.201902    0.674962
 C    0.833394    1.835478   -0.611889
 C    0.610687    3.351466   -0.561826
 C    0.750621    3.975813   -1.943821
 C    1.867006    0.935358    1.440095
 C    2.711350   -0.119757    0.778497
 C    3.974726    0.164441    0.279491
 C    4.728839   -0.811817   -0.342348
 C    4.228020   -2.104302   -0.490834
 N    4.945654   -3.064300   -1.177522
 C    2.954639   -2.388671    0.006504
 C    2.212045   -1.409215    0.630040
 H   -1.561106    1.457355   -0.458979
 H   -3.673263    1.488802    1.104607
 H   -2.786535    0.106310    1.781896
 H   -4.356193   -2.117116   -1.486808
 H   -5.717227   -0.983792   -1.622860
 H   -5.491447   -3.232272    0.449488
 H   -6.834918   -2.094859    0.321942
 H   -6.533346   -3.254773   -0.981485
 H    0.165511    1.382011   -1.353110
 H    1.855708    1.625346   -0.938137
 H    1.340888    3.794701    0.118054
 H   -0.382436    3.556714   -0.158757
 H    1.739046    3.779398   -2.353412
 H    0.010681    3.563115   -2.626138
 H    0.607111    5.052126   -1.892838
 H    1.538240    0.595958    2.425714
 H    2.435216    1.865186    1.553350
 H    4.382838    1.160227    0.387526
 H    5.713929   -0.578222   -0.721282
 H    5.938517   -2.911248   -1.249919
 H    4.683289   -4.021429   -1.005688
 H    2.557319   -3.388156   -0.100458
 H    1.230523   -1.637981    1.017915
