96 
6gl8_ligand_ani.xyz
 C    0.389420    0.507203    4.046144
 C    1.617388    0.290662    4.930997
 C    3.027043   -0.392452    2.987479
 C    2.888739    0.595094    4.142020
 C    0.548823   -0.154467    2.703607
 N    1.796889   -0.427062    2.194391
 C    1.684655   -0.828839    0.875014
 C    0.341768   -0.875410    0.582414
 C   -0.385366   -0.460115    1.722228
 C   -1.864965   -0.278343    1.830579
 O   -2.365603    0.620749    2.483326
 N   -2.669852   -1.182365    1.120812
 C    2.863419   -1.122215    0.022578
 C    3.618789   -2.289115    0.264111
 C    3.204985   -0.284103   -1.052094
 C    4.933187   -1.778969   -1.692873
 C    4.633605   -2.593853   -0.608336
 O    5.498947   -3.651128   -0.578359
 C    6.260716   -3.564368   -1.778975
 O    5.993927   -2.299843   -2.377970
 C    2.532895    1.053540   -1.251542
 N    1.486270    1.126680   -2.112953
 O    2.949624    2.044401   -0.647826
 C    0.890033    2.459422   -2.336916
 C    0.045591    2.420982   -3.612625
 C    0.925632   -0.042121   -2.810172
 C   -0.563734    0.109915   -3.020335
 C   -1.004498    1.350458   -3.491514
 C   -2.354599    1.554374   -3.757583
 C   -3.276879    0.535779   -3.533190
 C   -2.842430   -0.697767   -3.054367
 C   -1.487133   -0.909961   -2.804830
 C    0.042107    2.901431   -1.119909
 C    4.242540   -0.615495   -1.934589
 N    0.827203    3.559152   -0.040153
 C    0.170828    3.384798    1.289126
 C    0.921564    4.136301    2.380270
 O    1.060954    5.509159    2.076078
 C    1.745433    5.687730    0.852877
 C    1.018527    5.016860   -0.305706
 C   -3.958291   -0.740886    0.692981
 C   -2.353971   -2.571585    0.995988
 C   -4.111953    0.490147    0.055770
 C   -5.345680    0.881211   -0.438528
 C   -6.458282    0.060330   -0.263321
 C   -6.322385   -1.155044    0.400242
 C   -5.076595   -1.554530    0.865439
 C   -2.508174   -3.201287   -0.238787
 C   -2.218273   -4.554687   -0.373588
 C   -1.788826   -5.290196    0.725476
 C   -1.649417   -4.665397    1.961322
 C   -1.926507   -3.310565    2.101179
 O   -7.650190    0.498524   -0.757730
 H    0.243410    1.585738    3.879681
 H   -0.529650    0.154111    4.521758
 H    1.552439    0.914137    5.829346
 H    1.646487   -0.753862    5.265185
 H    3.246929   -1.394382    3.382801
 H    3.847353   -0.106415    2.325784
 H    3.776805    0.526606    4.778902
 H    2.850737    1.619949    3.748207
 H   -0.121677   -1.194313   -0.349105
 H    3.373586   -2.922510    1.108826
 H    5.958723   -4.367274   -2.465368
 H    7.325691   -3.636161   -1.540221
 H    1.720213    3.162467   -2.472691
 H    0.707923    2.223013   -4.465190
 H   -0.407504    3.402221   -3.790965
 H    1.146897   -0.942710   -2.235383
 H    1.433328   -0.156426   -3.779502
 H   -2.688904    2.521734   -4.128550
 H   -4.335889    0.711980   -3.711435
 H   -3.562869   -1.496422   -2.883708
 H   -1.148136   -1.877037   -2.434376
 H   -0.756087    3.585817   -1.438750
 H   -0.449666    2.012993   -0.709310
 H    4.484449    0.034490   -2.766660
 H    1.762898    3.092053   -0.034738
 H   -0.857291    3.761540    1.229137
 H    0.129129    2.314142    1.517865
 H    1.913852    3.677675    2.541558
 H    0.363302    4.087871    3.320567
 H    2.772057    5.289502    0.929404
 H    1.811657    6.765809    0.682522
 H    0.035462    5.487823   -0.430061
 H    1.582531    5.151956   -1.234426
 H   -3.255654    1.149596   -0.055526
 H   -5.470967    1.828045   -0.957456
 H   -7.187921   -1.801138    0.541892
 H   -4.955853   -2.518362    1.353248
 H   -2.879640   -2.627981   -1.082275
 H   -2.339634   -5.037731   -1.339965
 H   -1.566900   -6.348792    0.620134
 H   -1.317148   -5.236580    2.825020
 H   -1.809681   -2.818633    3.065373
 H   -8.328012   -0.161056   -0.564751
