49 
6gl9_ligand_xtb.xyz
 C   43.867284   -0.257250   67.593676
 C   39.904797    0.897387   68.119250
 C   40.194575    1.656823   69.214195
 N   41.530417    1.603874   69.474388
 C   42.143014   -1.875793   65.014944
 C   42.042034   -2.763705   63.860898
 N   41.080968   -1.213989   65.597968
 C   41.062133   -3.743496   63.760852
 C   40.999197   -4.592533   62.653372
 C   41.955935   -4.447859   61.645018
 C   42.951677   -3.496452   61.756963
 N   43.281397   -1.640673   65.604523
 C   39.942053   -5.583434   62.607129
 C   39.746560   -6.499036   61.645668
 C   38.678983   -7.408437   61.700826
 N   37.804747   -8.151611   61.738649
 C   43.002146   -2.657533   62.855163
 C   42.997450   -0.800976   66.642515
 N   43.438946    0.542848   68.541691
 C   41.608608   -0.513732   66.653776
 C   41.127820    0.332832   67.662688
 C   42.131931    0.804805   68.552902
 C   39.739538   -1.145602   65.060574
 C   38.721720   -1.770419   66.017989
 C   37.324074   -1.713070   65.409171
 C   36.945037   -0.275164   65.068124
 C   37.958352    0.327699   64.099693
 C   39.361858    0.293499   64.697703
 H   44.923066   -0.480715   67.576289
 H   38.922303    0.768721   67.710513
 H   39.533029    2.235156   69.829781
 H   42.014984    2.066153   70.224193
 H   40.352964   -3.882469   64.564582
 H   41.929373   -5.085403   60.775027
 H   43.694971   -3.405844   60.979021
 H   39.251043   -5.566021   63.442228
 H   40.389051   -6.591947   60.781163
 H   43.778845   -1.916202   62.954630
 H   39.745592   -1.726249   64.130300
 H   39.000954   -2.807478   66.221644
 H   38.736161   -1.238575   66.968599
 H   36.601646   -2.134738   66.110300
 H   37.298319   -2.317376   64.498701
 H   36.915144    0.321318   65.982609
 H   35.948638   -0.251489   64.623344
 H   37.685851    1.358562   63.866957
 H   37.946617   -0.239992   63.165824
 H   40.086846    0.681552   63.977586
 H   39.402351    0.927032   65.582400
