48 
6glb_ligand_ani.xyz
 C   41.327892   52.109638    4.659013
 C   37.627125   53.926972    5.301062
 C   38.114980   54.776136    6.248883
 N   39.454047   54.543091    6.419363
 C   39.153722   50.434200    2.473862
 C   38.865096   49.432503    1.471544
 N   38.257156   51.326653    3.040844
 C   39.729240   48.623225    0.799650
 C   38.940701   47.822168   -0.078486
 C   37.644298   48.192305    0.120051
 C   36.337730   47.763641   -0.444769
 N   40.369940   50.567894    2.936097
 C   35.444531   48.961043   -0.824986
 C   34.155923   48.530390   -1.373074
 C   36.837299   51.497883    2.719491
 N   33.141023   48.177926   -1.801635
 O   37.588126   49.164955    1.061220
 C   40.295076   51.573737    3.857086
 N   41.117794   53.086498    5.521327
 C   38.984742   52.068715    3.944850
 C   38.716592   53.105464    4.843818
 C   39.849471   53.539969    5.584060
 C   36.557549   52.893516    2.150003
 C   35.069466   53.071930    1.830729
 C   34.201044   52.778526    3.060072
 C   34.473251   51.368055    3.596086
 C   35.956291   51.184134    3.932772
 H   42.336975   51.711977    4.574450
 H   36.593979   53.918824    4.984718
 H   37.616289   55.542848    6.829002
 H   40.074990   55.021120    7.052535
 H   40.802918   48.614464    0.932430
 H   39.299226   47.067126   -0.765510
 H   35.808419   47.142397    0.290220
 H   36.516560   47.131372   -1.319259
 H   35.943205   49.594593   -1.566688
 H   35.236935   49.587720    0.047645
 H   36.608323   50.772963    1.944824
 H   37.171491   53.042976    1.256172
 H   36.865605   53.653527    2.876098
 H   34.886411   54.088159    1.461662
 H   34.786369   52.387540    1.015559
 H   34.437507   53.511689    3.848004
 H   33.137914   52.904439    2.822170
 H   33.859736   51.164462    4.481688
 H   34.180361   50.628546    2.833472
 H   36.159534   50.161399    4.266546
 H   36.228146   51.845693    4.762327
