48 
6glb_ligand_dft.xyz
 C   41.259588   52.100368    4.706414
 C   37.502756   53.767701    5.476920
 C   37.974580   54.544472    6.499971
 N   39.320555   54.337631    6.650303
 C   39.134222   50.552640    2.392232
 C   38.836409   49.607605    1.325181
 N   38.217308   51.395246    2.997960
 C   39.655270   49.083714    0.372495
 C   38.882122   48.108301   -0.323893
 C   37.650153   48.106839    0.253041
 C   36.390065   47.365489   -0.031199
 N   40.347879   50.658991    2.872486
 C   35.474217   48.071691   -1.055904
 C   35.014817   49.383557   -0.596337
 C   36.823313   51.618863    2.595752
 N   34.648478   50.418389   -0.230990
 O   37.610811   49.016680    1.261898
 C   40.246579   51.613771    3.857717
 N   41.021507   53.002202    5.639982
 C   38.924464   52.077239    3.965607
 C   38.621081   53.034008    4.959005
 C   39.746923   53.417311    5.726136
 C   36.597009   53.077118    2.176926
 C   35.129459   53.318750    1.809873
 C   34.191797   52.885791    2.940463
 C   34.404316   51.410189    3.289681
 C   35.858239   51.132985    3.682186
 H   42.276834   51.730318    4.605604
 H   36.475567   53.734122    5.147808
 H   37.445658   55.236023    7.139180
 H   39.928714   54.771010    7.325296
 H   40.686685   49.359903    0.214874
 H   39.201549   47.484370   -1.146862
 H   35.840343   47.204864    0.901334
 H   36.640961   46.381200   -0.437386
 H   34.593885   47.453317   -1.261361
 H   36.009789   48.209156   -2.000899
 H   36.657528   51.001381    1.711187
 H   37.249323   53.301245    1.325260
 H   36.890784   53.755816    2.983646
 H   34.983470   54.379498    1.576471
 H   34.880357   52.749891    0.906444
 H   34.374948   53.504952    3.831441
 H   33.149399   53.055491    2.648371
 H   33.739425   51.107868    4.106819
 H   34.141789   50.799980    2.416239
 H   36.021118   50.060276    3.836300
 H   36.088956   51.626779    4.633328
