24 
6gmq_ligand_ani.xyz
 C   36.733484   56.962519    6.309932
 C   36.981214   58.504774    7.913760
 C   37.414953   52.979050   11.557265
 C   37.309561   54.087856   10.542420
 C   36.530732   55.215221   10.800935
 C   36.405139   56.229983    9.861361
 C   37.056898   56.120669    8.632188
 C   37.834894   54.993625    8.361456
 C   37.962594   53.992072    9.313860
 C   36.657963   58.190027    5.707619
 C   36.820418   59.173165    6.729425
 N   36.930090   57.151061    7.660831
 O   38.638853   52.291266   11.381045
 H   36.633047   55.963690    5.908439
 H   37.161757   58.865062    8.917032
 H   37.339845   53.404164   12.570515
 H   36.563420   52.288603   11.434393
 H   36.017254   55.307127   11.756543
 H   35.787683   57.100008   10.069257
 H   38.356677   54.916148    7.410599
 H   38.578248   53.120955    9.111230
 H   36.497792   58.370912    4.652229
 H   36.824221   60.248236    6.601199
 H   38.639262   51.533806   11.977465
