19 
6gmx_ligand_ani.xyz
 C   -4.341889   -8.448801   24.776306
 C   -2.950109   -8.342916   25.372355
 C   -2.176017   -9.649136   25.324629
 C   -3.533061  -10.084925   22.981249
 C   -4.541051   -9.301996   23.562578
 C   -5.816473   -9.285773   22.984937
 C   -6.077620  -10.020348   21.844341
 C   -5.077339  -10.786418   21.248568
 C   -3.815580  -10.809054   21.818844
 O   -5.270682   -7.826713   25.252329
 S   -1.891082  -10.191985   23.620668
Cl   -7.666382   -9.987755   21.138795
 H   -2.406450   -7.572418   24.809598
 H   -3.066233   -7.989749   26.401479
 H   -2.696112  -10.437185   25.879088
 H   -1.182747   -9.527058   25.766659
 H   -6.588913   -8.681597   23.449942
 H   -5.290873  -11.355909   20.350033
 H   -3.031386  -11.405267   21.361602
