28 
6gnm_ligand_ani.xyz
 O   -0.678353   -1.089715    1.505537
 C   -1.616139   -0.541567    0.696722
 C   -2.880729   -1.122755    0.756357
 C   -3.926604   -0.589574    0.015691
 O   -5.131428   -1.208910    0.119356
 C   -3.730435    0.541388   -0.781776
 C   -2.469563    1.107758   -0.832446
 C   -1.379862    0.569790   -0.141214
 C   -0.059414    1.265543   -0.303425
 O   -0.031243    2.461476   -0.507273
 C    1.208230    0.458251   -0.282950
 C    1.335950   -0.726572   -1.012708
 C    2.516780   -1.448389   -1.032079
 C    3.611448   -0.976039   -0.307635
 O    4.750008   -1.714035   -0.343130
 C    3.519080    0.210395    0.415888
 C    2.327422    0.932905    0.417577
 O    2.196986    2.077683    1.122195
 H    0.162753   -0.623306    1.392279
 H   -3.043085   -1.985549    1.392807
 H   -5.774266   -0.746317   -0.432078
 H   -4.555483    0.971296   -1.346180
 H   -2.297016    1.998995   -1.427550
 H    0.481646   -1.091284   -1.577179
 H    2.613548   -2.371516   -1.591429
 H    5.424668   -1.284218    0.198280
 H    4.376572    0.577309    0.983271
 H    3.025911    2.255787    1.586279
