46 
6gop_ligand_ani.xyz
 C    0.696483    1.069843   -0.662648
 C    0.769373    0.990813   -2.172005
 C   -0.762590    1.005285   -0.054386
 C   -1.754013    0.164645   -0.905386
 C   -3.583679    0.038569    0.902856
 C   -4.351672   -1.916616   -1.037254
 C    5.162807   -1.040571    0.743306
Cl    5.934053   -0.821358   -0.861071
 C    3.652571   -1.185315    0.641383
 C    2.953658    0.064717    0.107111
 C    1.437213   -0.083074    0.049208
 O    1.258989    2.327539   -0.308420
 C    0.748694   -0.125641    1.411614
 O    1.200773   -0.540623    2.459374
 N   -0.513169    0.399342    1.247544
 C   -1.266161    2.430210    0.113409
 O   -1.675100    2.882014    1.157494
 O   -1.347740   -1.189602   -0.891282
 C   -3.252238    0.343909   -0.535494
 C   -4.173510   -0.458687   -1.474712
 C   -4.915048   -2.012699    0.385653
 C   -4.284262   -1.015725    1.319426
 H    0.400614    0.029356   -2.544179
 H    0.177060    1.794058   -2.622260
 H    1.804330    1.117403   -2.501410
 H   -1.675362    0.494413   -1.949060
 H   -3.232481    0.768424    1.627505
 H   -5.015785   -2.434212   -1.738136
 H   -3.381333   -2.419853   -1.077454
 H    5.616978   -1.929382    1.186165
 H    5.439731   -0.171896    1.346126
 H    3.270667   -1.414632    1.643019
 H    3.422818   -2.046082    0.000742
 H    3.210307    0.925592    0.736314
 H    3.331734    0.293081   -0.897846
 H    1.186939   -1.022162   -0.465674
 H    1.354009    2.370556    0.653048
 H   -1.028875    0.714545    2.061772
 H   -1.225865    3.055693   -0.802012
 H   -1.271054   -1.421246    0.047840
 H   -3.449551    1.413787   -0.689776
 H   -3.788226   -0.412334   -2.500222
 H   -5.156888    0.030876   -1.490193
 H   -4.781280   -3.027269    0.783347
 H   -6.001397   -1.842649    0.381097
 H   -4.454939   -1.150979    2.386828
