34 
6got_ligand_dft.xyz
 C   -1.991682   -1.213822    0.570146
 C   -0.774631   -1.801300    0.255654
 C   -1.577128    0.515658   -1.077167
 C   -0.348110   -0.065247   -1.369789
 C    0.059043   -1.228028   -0.711075
 C    2.390994   -2.221299    0.479682
 C    4.463998    2.386386   -0.364104
 O   -3.934783    2.038378   -0.238994
 S   -3.953731    0.681361    0.285633
 O   -4.252014    0.393662    1.679860
 N   -5.045536   -0.217405   -0.615151
 C   -2.386999   -0.063579   -0.107502
 S    1.624568   -1.943384   -1.156628
 C    2.444350   -0.993829    1.398003
 C    3.151112    0.197133    0.796169
 C    4.532594    0.173484    0.591078
 C    5.186087    1.257116    0.014649
 C    3.088420    2.423207   -0.159239
 C    2.438710    1.335383    0.417646
 H   -2.631355   -1.640247    1.335537
 H   -0.471060   -2.709617    0.766515
 H   -1.892501    1.428285   -1.571269
 H    0.314132    0.397431   -2.094288
 H    3.402676   -2.557628    0.230039
 H    1.891938   -3.051761    0.988552
 H    4.972841    3.234223   -0.812990
 H   -5.393686    0.320201   -1.402739
 H   -5.798225   -0.541206   -0.015649
 H    2.952491   -1.305374    2.320033
 H    1.425189   -0.713883    1.685320
 H    5.104747   -0.702603    0.890029
 H    6.261210    1.222404   -0.135784
 H    2.517504    3.301426   -0.446554
 H    1.363274    1.368647    0.573380
