34 
6got_ligand_ani.xyz
 C   -3.803982    2.685876   15.727160
 C   -2.962434    3.284547   14.798922
 C   -5.716993    3.720220   14.658789
 C   -4.870516    4.314923   13.733281
 C   -3.489608    4.113040   13.806123
 C   -0.954391    5.284253   13.448554
 C   -3.031941    9.921398   13.778308
 O   -7.474755    2.907796   16.886455
 S   -6.249880    2.126450   16.820373
 O   -5.462394    1.812902   18.002218
 N   -6.639409    0.671354   16.093537
 C   -5.174776    2.905508   15.647964
 S   -2.492551    4.890207   12.565166
 C   -1.107282    6.173599   14.691574
 C   -1.779835    7.493344   14.399684
 C   -3.156376    7.645949   14.565964
 C   -3.780544    8.851086   14.259019
 C   -1.659516    9.777980   13.601593
 C   -1.040815    8.570468   13.908189
 H   -3.400984    2.060446   16.516552
 H   -1.893012    3.105864   14.856850
 H   -6.788581    3.889888   14.623711
 H   -5.276408    4.952206   12.952088
 H   -0.427145    4.358905   13.700932
 H   -0.352553    5.797803   12.691635
 H   -3.517705   10.864496   13.539820
 H   -6.304950   -0.101927   16.658887
 H   -7.638877    0.621480   15.926113
 H   -1.670865    5.628490   15.457330
 H   -0.104936    6.345018   15.103424
 H   -3.742327    6.803014   14.928824
 H   -4.853501    8.958096   14.399346
 H   -1.068439   10.609213   13.224094
 H    0.033283    8.460105   13.765518
