61 
6gqm_ligand_ani.xyz
 C   27.326874  103.831705   11.584683
 C   26.506231  102.626774   12.069147
 C   28.323183  103.434580   10.540831
 N   37.546290   95.970526    8.843232
 C   33.442867   99.278661    9.170477
 C   34.306456   98.730106    8.218267
 C   35.041494   97.584118    8.480731
 C   34.918570   96.954724    9.720836
 C   34.038331   97.495243   10.662606
 C   33.311194   98.648229   10.408862
 C   36.806294   95.287019    9.689754
 C   37.275081   94.031100   10.238704
 C   38.558385   93.614541    9.819987
 C   39.111594   92.403285   10.293586
 C   36.598758   93.174144   11.144854
 C   40.140660   90.010892   11.283743
 C   40.429220   88.709866   11.994323
 C   40.721641   87.782121   14.111647
 F   35.362636   93.519224   11.587910
 C   37.119258   92.002106   11.609792
 C   38.406109   91.615890   11.167887
 O   38.852200   90.439419   11.675855
 O   40.564664   88.962798   13.368424
 N   39.309389   94.354474    8.955686
 C   38.763625   95.462737    8.536106
 N   35.583255   95.762827   10.074021
 N   32.738882  100.447938    8.820335
 C   31.893852  101.188877    9.598520
 O   31.646292  100.958448   10.766681
 C   31.309010  102.402545    8.863355
 N   30.016367  102.806916    9.372281
 C   29.643949  103.072917   10.647976
 N   28.996922  102.988627    8.529794
 N   27.969418  103.362198    9.226270
 C   28.006874  104.539326   12.756819
 H   26.643888  104.531203   11.089138
 H   25.755483  102.946445   12.800298
 H   25.989232  102.146406   11.232465
 H   27.154749  101.882901   12.545057
 H   34.417074   99.211008    7.248367
 H   35.711973   97.176738    7.733484
 H   33.928289   97.006350   11.629204
 H   32.645194   99.054882   11.157882
 H   40.098756   92.145521    9.929572
 H   40.173539   89.862115   10.196186
 H   40.893844   90.757458   11.565378
 H   39.599683   88.010953   11.802388
 H   41.353109   88.267689   11.586096
 H   40.826828   88.068049   15.160756
 H   39.847975   87.119197   14.009501
 H   41.619736   87.223209   13.803749
 H   36.562381   91.379715   12.301863
 H   39.350587   96.062937    7.843218
 H   35.131203   95.225323   10.798270
 H   32.887538  100.764271    7.874127
 H   32.020615  103.234926    8.958669
 H   31.176130  102.194875    7.797501
 H   30.326653  102.947460   11.477874
 H   27.262510  104.880363   13.485176
 H   28.695891  103.860768   13.272384
 H   28.576315  105.407334   12.411417
