57 
6gu6_ligand_ani.xyz
 C   -0.065403   -0.687456    0.046027
 N    2.109563    0.434384    0.035895
 C    2.891770   -0.791436    0.033884
 C    4.751722    0.353778    1.296373
 C    7.037851   -0.024792    0.645025
 C   -2.003540   -2.765381    0.798607
 C   -3.670004   -3.996338   -0.601590
 C   -3.718009   -1.450989   -0.410274
 C   -4.564976   -0.047977    1.578733
 C   -3.373382    4.242508    0.454614
 C   -2.774320    3.755833   -0.872179
 C   -1.434180    3.104230   -0.730613
 C   -0.140281    3.667115   -0.766125
 N    0.835442    2.796004   -0.543160
 N    0.168056    1.617813   -0.356151
 C   -1.198385    1.751680   -0.470990
 N   -2.025768    0.705075   -0.338464
 C   -1.477199   -0.489646   -0.059307
 C    0.759274    0.404006   -0.093666
 C    4.352768   -0.489774    0.262553
 C    6.112482    0.571529    1.479502
 N    6.642560   -0.842558   -0.370783
 C    5.307679   -1.068918   -0.549116
 O    7.491613   -1.386180   -1.136936
 N   -2.347532   -1.536053    0.093317
 C   -2.228752   -3.979204   -0.095733
 C   -4.006345   -2.673592   -1.292187
 C   -4.759719   -1.291495    0.710398
 O   -4.603865    1.145082    0.828313
 H    0.365148   -1.672363    0.168001
 H    2.534572    1.261978   -0.368121
 H    2.516156   -1.438036    0.838519
 H    2.778199   -1.354584   -0.907232
 H    4.009086    0.824716    1.935289
 H    8.111308    0.095689    0.715274
 H   -2.629438   -2.859917    1.698181
 H   -0.972973   -2.710675    1.149504
 H   -3.822476   -4.828649   -1.298186
 H   -4.358683   -4.167196    0.238598
 H   -3.767688   -0.559789   -1.041001
 H   -5.381790    0.001360    2.308421
 H   -3.625787   -0.121844    2.148736
 H   -2.701346    4.953099    0.945564
 H   -4.330737    4.745061    0.282005
 H   -3.552354    3.408969    1.142204
 H   -3.468396    3.048097   -1.348445
 H   -2.696016    4.605589   -1.562680
 H    0.102266    4.706326   -0.949623
 H    6.472637    1.217193    2.272712
 H    5.095886   -1.732637   -1.379314
 H   -1.992670   -4.897891    0.455643
 H   -1.541482   -3.925477   -0.949989
 H   -5.056660   -2.647300   -1.607672
 H   -3.397791   -2.576602   -2.199871
 H   -4.767934   -2.181743    1.352161
 H   -5.750594   -1.231804    0.240266
 H   -3.743005    1.182469    0.361857
