41 
6gvg_ligand_ani.xyz
 C  -15.746637  146.393185   26.866526
 C  -15.356092  144.050128   26.553000
 C  -15.068957  145.370164   26.214983
 C  -13.845063  144.131419   25.025873
 C  -17.399658  147.113533   28.579368
 C  -18.048101  148.971481   29.642571
 C  -16.903814  148.366789   29.087953
 C  -16.292475  143.676311   27.495444
 C  -16.964907  144.712623   28.135937
 C  -16.682742  146.055816   27.847655
 N  -14.086597  145.385881   25.221145
 O  -14.554233  143.241003   25.772635
 N  -12.980108  143.585151   24.122744
 N  -19.082247  148.112003   29.464301
 N  -18.684256  146.970825   28.861091
 C  -15.706552  149.090750   29.279266
 N  -15.727758  150.290253   29.853626
 C  -16.917443  150.766685   30.293054
 N  -18.105229  150.162427   30.240247
 C  -20.419525  148.274180   30.033759
 C  -20.425088  147.909285   31.517613
 C  -21.429801  147.470476   29.230452
 C  -14.370290  148.556572   28.886729
 N  -16.887299  151.992160   30.894006
 H  -15.557565  147.430553   26.621090
 H  -16.499695  142.635976   27.722303
 H  -17.726321  144.488739   28.877949
 H  -12.296258  144.236987   23.767689
 H  -12.614225  142.673957   24.354778
 H  -20.638027  149.343116   29.952350
 H  -19.678097  148.513078   32.042822
 H  -21.410195  148.117007   31.949202
 H  -20.199733  146.847214   31.669557
 H  -22.437479  147.629750   29.627464
 H  -21.412507  147.781429   28.182982
 H  -21.189848  146.404045   29.278504
 H  -13.593582  149.015372   29.504153
 H  -14.337537  147.468342   28.993841
 H  -14.138669  148.798458   27.842308
 H  -16.064659  152.550279   30.723536
 H  -17.769728  152.471597   30.982497
