75 
6gvz_ligand_ani.xyz
 C    5.406640   -1.227148    1.203265
 C    5.991805   -1.568437   -0.166482
 C    6.740809   -0.376586   -0.739284
 O    7.223649   -0.746785   -2.019915
 C    5.822438    0.838255   -0.814035
 C    5.189115    1.186915    0.544791
 C    4.277643    2.422405    0.440460
 C    2.937949    2.161198   -0.248510
 O    3.188438    1.992624   -1.642426
 C    2.203841    0.949366    0.362065
 C    3.122638   -0.299258    0.428225
 C    4.445341   -0.013767    1.207607
 C    2.356411   -1.529442    0.949712
 C    1.034572   -1.795699    0.207524
 C    0.116511   -0.569416    0.198596
 C    0.935116    0.593832   -0.411878
 C   -0.108521    1.680161   -0.676284
 C   -1.370926    0.883017   -1.093934
 C   -1.075202   -0.617185   -0.799120
 C   -0.384431   -0.244921    1.613833
 C    4.159661    0.320309    2.682203
 C   -2.342667   -1.384587   -0.382997
 C   -2.062734   -2.845180   -0.009730
 C   -3.409452   -1.316476   -1.499004
 C   -4.835861   -1.552798   -1.005255
 C   -5.351493   -0.411902   -0.135052
 O   -4.745884    0.636155    0.021560
 N   -6.550869   -0.654288    0.485325
 C   -7.249095    0.407194    1.161192
 C   -8.359641    1.056137    0.352655
 O   -8.879099    2.106738    0.632212
 O   -8.741694    0.302269   -0.697203
 H    4.910923   -2.098864    1.645120
 H    6.237709   -0.981167    1.880747
 H    5.196391   -1.850772   -0.868570
 H    6.672548   -2.424428   -0.099823
 H    7.587855   -0.141152   -0.070185
 H    7.678221    0.019548   -2.391945
 H    6.392392    1.707847   -1.173798
 H    5.047001    0.659733   -1.562059
 H    6.023147    1.438370    1.219370
 H    4.792587    3.215076   -0.112844
 H    4.078637    2.821304    1.443883
 H    2.314692    3.062014   -0.112216
 H    2.339110    1.952760   -2.097736
 H    1.921195    1.255985    1.378148
 H    3.399998   -0.519724   -0.615664
 H    2.982312   -2.422626    0.857637
 H    2.147092   -1.417503    2.021199
 H    1.258175   -2.080266   -0.831617
 H    0.539387   -2.657263    0.667522
 H    1.263322    0.221873   -1.398329
 H   -0.299140    2.266037    0.231760
 H    0.207338    2.391549   -1.449760
 H   -2.254876    1.216389   -0.536034
 H   -1.596018    1.028835   -2.157132
 H   -0.687304   -1.083562   -1.721341
 H    0.437040   -0.027274    2.301277
 H   -1.059761    0.618943    1.627204
 H   -0.938496   -1.091224    2.034348
 H    3.720205   -0.535679    3.205719
 H    5.094864    0.569262    3.197411
 H    3.480942    1.168330    2.805333
 H   -2.766682   -0.869246    0.489747
 H   -2.991371   -3.419235    0.081386
 H   -1.539439   -2.940918    0.945678
 H   -1.454294   -3.333427   -0.782329
 H   -3.165764   -2.055248   -2.274107
 H   -3.395881   -0.336415   -1.986136
 H   -5.515487   -1.662977   -1.861882
 H   -4.913581   -2.486155   -0.431079
 H   -7.108859   -1.421421    0.141129
 H   -7.697702    0.046039    2.094884
 H   -6.525990    1.182645    1.420025
 H   -9.462433    0.790105   -1.129406
