75 
6gvz_ligand_xtb.xyz
 C    5.381091   -1.160711    1.285629
 C    5.941464   -1.569816   -0.069133
 C    6.692239   -0.399630   -0.692975
 O    7.174989   -0.812080   -1.957920
 C    5.761937    0.804944   -0.809914
 C    5.151369    1.204735    0.536987
 C    4.247465    2.429075    0.368856
 C    2.925646    2.127424   -0.338554
 O    3.186942    1.916414   -1.711553
 C    2.196895    0.947133    0.331951
 C    3.111870   -0.284708    0.459631
 C    4.413720    0.039240    1.233731
 C    2.333366   -1.462992    1.059050
 C    1.050484   -1.795924    0.291699
 C    0.128667   -0.578741    0.202777
 C    0.954517    0.542317   -0.459596
 C   -0.090043    1.611849   -0.764594
 C   -1.313965    0.789926   -1.203255
 C   -1.040963   -0.685690   -0.810131
 C   -0.401770   -0.193170    1.585344
 C    4.127594    0.418961    2.695005
 C   -2.327350   -1.397396   -0.360190
 C   -2.079644   -2.846702    0.057439
 C   -3.360853   -1.375015   -1.500515
 C   -4.794484   -1.518552   -0.992984
 C   -5.261003   -0.267495   -0.270459
 O   -4.700676    0.805316   -0.319124
 N   -6.385368   -0.460552    0.471502
 C   -7.072024    0.641302    1.089589
 C   -8.415557    0.955419    0.461350
 O   -9.193165    1.762972    0.887229
 O   -8.655364    0.217652   -0.629339
 H    4.893353   -2.014929    1.755014
 H    6.220493   -0.880118    1.928156
 H    5.149187   -1.879078   -0.750489
 H    6.624084   -2.413303    0.045773
 H    7.548402   -0.137387   -0.044906
 H    7.495107   -0.036485   -2.430894
 H    6.322079    1.660057   -1.201178
 H    4.977861    0.578478   -1.529726
 H    5.983152    1.499177    1.190657
 H    4.774693    3.187413   -0.212771
 H    4.020084    2.855541    1.346436
 H    2.283163    3.020247   -0.238677
 H    2.346512    1.802574   -2.166567
 H    1.893203    1.295650    1.321018
 H    3.398235   -0.565696   -0.557805
 H    2.963263   -2.353304    1.050255
 H    2.077779   -1.248893    2.096090
 H    1.310831   -2.122782   -0.718533
 H    0.560846   -2.631317    0.791509
 H    1.298864    0.129373   -1.417110
 H   -0.304045    2.198809    0.128696
 H    0.222696    2.305941   -1.545874
 H   -2.222174    1.150684   -0.722500
 H   -1.454960    0.876336   -2.280713
 H   -0.664481   -1.223081   -1.688890
 H    0.390769    0.170987    2.231315
 H   -1.158373    0.581124    1.508647
 H   -0.849207   -1.057878    2.069226
 H    3.786915   -0.448557    3.254610
 H    5.038872    0.779807    3.168114
 H    3.377399    1.198048    2.781000
 H   -2.751311   -0.849480    0.484884
 H   -3.021583   -3.380066    0.168057
 H   -1.559170   -2.905226    1.007995
 H   -1.485974   -3.361592   -0.694922
 H   -3.138521   -2.179954   -2.203970
 H   -3.302495   -0.430154   -2.036781
 H   -5.470750   -1.672207   -1.838706
 H   -4.894832   -2.376249   -0.325718
 H   -6.886624   -1.330534    0.389722
 H   -7.225629    0.470463    2.160878
 H   -6.427147    1.520973    0.973287
 H   -9.508803    0.463557   -1.019895
