69 
6gw1_ligand_ani.xyz
 C    4.181389   -0.445882   -1.707894
 C    4.329299    1.054191   -1.959469
 C    5.096648    1.712360   -0.824692
 O    5.171617    3.100501   -1.102707
 C    4.404163    1.440845    0.506073
 C    4.212310   -0.062393    0.775376
 C    3.527111   -0.307039    2.131684
 C    2.028741   -0.004259    2.145172
 O    1.867232    1.411989    2.103368
 C    1.292191   -0.707980    0.987125
 C    1.965613   -0.407684   -0.377549
 C    3.474987   -0.809719   -0.379534
 C    1.166248   -1.010455   -1.549229
 C   -0.337404   -0.677478   -1.517027
 C   -0.986096   -1.050918   -0.180276
 C   -0.181260   -0.313848    0.917122
 C   -1.045773   -0.447288    2.171554
 C   -2.496898   -0.394247    1.630329
 C   -2.400627   -0.460018    0.081181
 C   -0.988318   -2.572624    0.018945
 C    3.645150   -2.327257   -0.188819
 C   -3.611001   -1.156311   -0.560673
 C   -3.529679   -1.200807   -2.091379
 C   -4.948375   -0.528128   -0.117128
 C   -5.159434    0.920574   -0.545521
 C   -6.517118    1.439744   -0.089904
 O   -7.314331    0.763008    0.536064
 N   -6.781098    2.736105   -0.424796
 H    3.674368   -0.936067   -2.546751
 H    5.187991   -0.887880   -1.668121
 H    3.344685    1.533418   -2.039020
 H    4.850201    1.243384   -2.904648
 H    6.112345    1.278921   -0.791200
 H    5.645618    3.517745   -0.372260
 H    3.442786    1.958736    0.526741
 H    4.997182    1.875749    1.324380
 H    5.222771   -0.498783    0.824080
 H    4.002946    0.309494    2.901804
 H    3.670999   -1.352268    2.435904
 H    1.624215   -0.374047    3.103443
 H    0.930604    1.610940    2.219915
 H    1.355783   -1.782187    1.206234
 H    1.919040    0.686967   -0.497481
 H    1.572356   -0.645966   -2.498241
 H    1.288339   -2.100781   -1.569351
 H   -0.828288   -1.188562   -2.352191
 H   -0.469060    0.401250   -1.687811
 H   -0.209741    0.749986    0.622815
 H   -0.846338    0.341551    2.907762
 H   -0.853632   -1.403916    2.673711
 H   -3.017191    0.516959    1.946419
 H   -3.080470   -1.237283    2.018801
 H   -2.359065    0.570779   -0.307320
 H   -1.543219   -3.067029   -0.786667
 H   -1.453592   -2.871151    0.965338
 H    0.022772   -2.988089    0.009050
 H    4.710743   -2.583329   -0.159844
 H    3.193919   -2.696099    0.735811
 H    3.200594   -2.885007   -1.020169
 H   -3.635724   -2.190378   -0.186841
 H   -2.808005   -1.940282   -2.450440
 H   -4.502327   -1.466977   -2.521984
 H   -3.241776   -0.225797   -2.503250
 H   -5.772138   -1.123998   -0.526633
 H   -5.065468   -0.591762    0.970699
 H   -4.381344    1.576416   -0.130833
 H   -5.096868    1.021729   -1.637986
 H   -7.690251    3.104897   -0.191527
 H   -6.175417    3.281727   -1.015355
