69 
6gw1_ligand_xtb.xyz
 C    4.169726   -0.504916   -1.677981
 C    4.280042    0.981230   -1.986893
 C    5.052462    1.682355   -0.876088
 O    5.117005    3.061153   -1.188496
 C    4.361074    1.439666    0.463281
 C    4.194273   -0.051325    0.773353
 C    3.514679   -0.238309    2.132869
 C    2.021023    0.090334    2.128731
 O    1.865995    1.493050    2.045911
 C    1.294742   -0.668469    1.001673
 C    1.965392   -0.411861   -0.360582
 C    3.459451   -0.822273   -0.346594
 C    1.172391   -1.077579   -1.493311
 C   -0.315517   -0.713796   -1.499380
 C   -0.968050   -1.039105   -0.155321
 C   -0.172320   -0.255366    0.907865
 C   -1.032902   -0.375330    2.163750
 C   -2.473291   -0.347596    1.620977
 C   -2.381038   -0.443952    0.078712
 C   -0.979457   -2.549169    0.088251
 C    3.634906   -2.332544   -0.122334
 C   -3.589286   -1.180712   -0.520452
 C   -3.529708   -1.263715   -2.046853
 C   -4.918431   -0.540910   -0.084809
 C   -5.130972    0.895693   -0.554167
 C   -6.491498    1.412509   -0.116477
 O   -7.278449    0.789864    0.556863
 N   -6.758173    2.670774   -0.550576
 H    3.669545   -1.016828   -2.499934
 H    5.182372   -0.913422   -1.617344
 H    3.297310    1.443955   -2.074540
 H    4.799964    1.130583   -2.934543
 H    6.076946    1.269350   -0.837222
 H    5.457542    3.533107   -0.421125
 H    3.393082    1.936971    0.457767
 H    4.952785    1.893458    1.264446
 H    5.203559   -0.476719    0.851035
 H    3.999277    0.406625    2.868024
 H    3.632869   -1.270524    2.464350
 H    1.602824   -0.251373    3.092022
 H    0.930763    1.701879    2.134836
 H    1.348217   -1.727733    1.259104
 H    1.924270    0.668695   -0.524976
 H    1.589838   -0.767252   -2.452002
 H    1.268832   -2.160370   -1.427291
 H   -0.794533   -1.253796   -2.315593
 H   -0.423754    0.355188   -1.701734
 H   -0.196731    0.793351    0.583274
 H   -0.859248    0.433150    2.875038
 H   -0.823222   -1.314234    2.677131
 H   -2.985481    0.565916    1.921335
 H   -3.044494   -1.186585    2.017309
 H   -2.367863    0.568577   -0.338991
 H   -1.460869   -3.055643   -0.744742
 H   -1.521720   -2.795242    0.995802
 H    0.025680   -2.947888    0.178687
 H    4.689329   -2.564549    0.013902
 H    3.101878   -2.687534    0.753390
 H    3.284422   -2.890595   -0.986877
 H   -3.601793   -2.201423   -0.125826
 H   -2.805528   -2.004955   -2.371280
 H   -4.500248   -1.557007   -2.441856
 H   -3.253426   -0.306583   -2.482216
 H   -5.737791   -1.147155   -0.476910
 H   -5.008769   -0.561738    1.000903
 H   -4.371574    1.558163   -0.134021
 H   -5.074246    0.959129   -1.642207
 H   -7.639524    3.091518   -0.308240
 H   -6.115839    3.192430   -1.118386
