27 
6gxg_ligand_dft.xyz
 C   -4.964636   -1.481549    0.179195
 C   -3.597162   -0.873829    0.103836
 N   -3.449269    0.407029   -0.033297
 N   -2.534493   -1.729730    0.187688
 C   -1.171634   -1.374499    0.140914
 O   -0.323138   -2.242676    0.234126
 C   -1.003724    0.059435   -0.023050
 C   -2.153932    0.833776   -0.087220
 S   -1.784634    2.518745   -0.227142
 C   -0.089651    2.173236   -0.193665
 C    0.204800    0.845426   -0.082317
 C    1.601576    0.355322   -0.031699
 C    2.031407   -0.725061   -0.809594
 C    3.359260   -1.129593   -0.794577
 C    4.259595   -0.444461    0.007726
 F    5.544185   -0.834242    0.025473
 C    3.870461    0.626879    0.794841
 C    2.536585    1.018678    0.769516
 H   -5.708417   -0.689248    0.097597
 H   -5.116557   -2.201378   -0.632532
 H   -5.104562   -2.008218    1.129582
 H   -2.696721   -2.722495    0.303578
 H    0.623924    2.980716   -0.288680
 H    1.319541   -1.261358   -1.425266
 H    3.701836   -1.966254   -1.393082
 H    4.599681    1.131280    1.419004
 H    2.211532    1.842968    1.397631
