35 
6gxw_ligand_ani.xyz
 C   45.459132   33.782218   84.967000
 C   44.794228   34.873582   85.362926
 C   43.544844   35.388598   84.790454
 C   42.914735   34.807460   83.689505
 C   41.735044   35.328347   83.170571
 C   41.166257   36.452441   83.753304
 C   41.768165   37.060206   84.852491
 C   42.945555   36.529547   85.368346
 C   43.117204   38.259312   87.022678
 O   43.592467   37.046303   86.448689
 C   44.087996   38.630320   88.118461
 C   43.801969   38.495351   89.481234
 C   44.722703   38.814840   90.472530
 C   45.976895   39.285060   90.110262
 C   46.307639   39.431879   88.769538
 C   45.368064   39.102745   87.801332
 N   47.299421   32.254111   85.157914
 C   46.716670   33.394465   85.636266
 O   47.224955   33.982066   86.587590
 O   48.577448   31.998085   85.633221
Cl   42.248594   37.897913   90.009155
Cl   45.829611   39.298737   86.132004
 H   45.107562   33.136060   84.165964
 H   45.217211   35.445423   86.188240
 H   43.354764   33.931602   83.221651
 H   41.265853   34.854905   82.312831
 H   40.244798   36.869697   83.354900
 H   41.307362   37.939514   85.292887
 H   43.098317   39.051764   86.264101
 H   42.110951   38.122663   87.425590
 H   44.448653   38.692490   91.515417
 H   46.701990   39.537975   90.877541
 H   47.284244   39.797198   88.468349
 H   47.240711   32.024149   84.175640
 H   48.666988   32.688972   86.323419
