35 
6gxw_ligand_xtb.xyz
 C    3.383764   -0.270227   -0.301802
 C    2.153520    0.256382   -0.226398
 C    1.797770    1.650325   -0.077556
 C    2.742562    2.672005    0.011584
 C    2.365675    3.989996    0.174617
 C    1.021710    4.313019    0.252753
 C    0.057243    3.324349    0.165192
 C    0.427270    1.995174   -0.002646
 C   -1.824412    1.196450    0.141555
 O   -0.450853    0.971042   -0.109764
 C   -2.481496   -0.156800    0.194924
 C   -3.407801   -0.586064   -0.751481
 C   -3.966682   -1.853792   -0.698318
 C   -3.592597   -2.723100    0.309661
 C   -2.674537   -2.328823    1.265714
 C   -2.130611   -1.056359    1.202495
 N    4.844196   -2.133142   -0.491742
 C    3.552009   -1.715929   -0.442586
 O    2.656341   -2.550539   -0.466998
 O    5.054278   -3.494755   -0.734837
Cl   -3.901130    0.463719   -2.030758
Cl   -0.996166   -0.578981    2.407202
 H    4.284758    0.323106   -0.265089
 H    1.322381   -0.435210   -0.274987
 H    3.790794    2.424272   -0.044571
 H    3.114846    4.763857    0.241823
 H    0.716535    5.340808    0.380801
 H   -0.984199    3.600313    0.221077
 H   -2.267963    1.808194   -0.652131
 H   -1.956307    1.704953    1.107472
 H   -4.682328   -2.152688   -1.447628
 H   -4.018317   -3.713416    0.349231
 H   -2.375224   -2.998884    2.055465
 H    5.645156   -1.572355   -0.728591
 H    4.136063   -3.847108   -0.713678
