34 
6gy1_ligand_ani.xyz
 C   12.664717   -6.133099  -22.055300
 C   13.732785   -5.469253  -21.369629
 C   14.835627   -6.254550  -20.963193
 C   15.914292   -4.492183  -19.981088
 C   13.804458   -4.087693  -21.053743
 C   10.245304   -4.241130  -20.119944
 C    8.905259   -5.438979  -18.490393
 C    9.541061   -6.505875  -20.574433
 C   14.908247   -7.647346  -21.267999
 C   10.229605   -5.358039  -20.943401
 C    9.586616   -4.288944  -18.897949
 C    8.886196   -6.540376  -19.350353
 C    8.211033   -5.492688  -17.151746
 C   13.871689   -8.215149  -21.967678
 C   12.756928   -7.470798  -22.360286
 C   14.882968   -3.604577  -20.358483
 F   13.933865   -9.518043  -22.274051
 N   15.903898   -5.768843  -20.272245
 O   10.429897   -6.221869  -23.405983
 O   11.385438   -3.939260  -22.816449
 O   15.974381   -8.360727  -20.875061
 S   11.125953   -5.335789  -22.478893
 H   16.775607   -4.121950  -19.426398
 H   13.014907   -3.427189  -21.388861
 H   10.755809   -3.340331  -20.446853
 H    9.500386   -7.354353  -21.250544
 H    9.595278   -3.416619  -18.248931
 H    8.344287   -7.435801  -19.054527
 H    8.883240   -5.859300  -16.366910
 H    7.860679   -4.501966  -16.846049
 H    7.345216   -6.161526  -17.179722
 H   11.966776   -7.968577  -22.911892
 H   14.953659   -2.552008  -20.103745
 H   16.545939   -7.720171  -20.408270
