81 
6h14_ligand_ani.xyz
 O    9.819627   -2.930452    0.860463
 C    8.902171   -2.135628    0.753238
 N    9.019831   -0.769477    0.724799
 C   10.277814   -0.072835    0.616850
 C   10.358218    0.684231   -0.710804
 C    9.116883    1.563198   -0.903645
 C    7.841741    0.720410   -0.833170
 C    7.771977   -0.057075    0.492437
 C    6.779956   -1.193643    0.513396
 C    7.441450   -2.405146    0.618277
 C    6.774898   -3.620103    0.556291
 C    5.396028   -3.579804    0.384455
 C    4.705169   -2.365715    0.287694
 C    5.389633   -1.154544    0.368812
 N    4.769122    0.109049    0.356198
 C    3.466139    0.403079    0.007149
 O    2.667548   -0.418549   -0.407102
 N    3.173582    1.746004    0.175817
 C    1.945984    2.389131   -0.027773
 C    0.825996    1.737428   -0.543227
 N    1.962201    3.677687    0.313286
 C    0.827257    4.365834    0.151704
 C   -0.344530    3.823227   -0.349254
 C   -0.337245    2.474951   -0.709596
 C   -1.534615    1.841108   -1.272951
 C   -1.719880    0.564339   -1.750796
 N   -2.706212    2.518728   -1.420987
 N   -3.580287    1.731370   -1.960481
 N   -3.005606    0.547380   -2.175015
 C   -3.789465   -0.559610   -2.710058
 C   -4.780027   -1.131199   -1.694004
 N   -5.826103   -0.148010   -1.407991
 C   -6.680602   -0.377232   -0.318290
 C   -6.540659    0.320956    0.870232
 C   -5.500001    1.425606    0.997063
 C   -5.610608    2.231063    2.290999
 C   -5.814026    1.300394    3.482223
 C   -7.153157    0.581183    3.338609
 C   -7.333448   -0.080588    1.982827
 N   -8.252968   -1.019637    1.928041
 C   -8.457434   -1.646432    0.735059
 C   -7.710444   -1.353417   -0.429721
 C   -8.017293   -2.021122   -1.647970
 C   -9.005984   -2.971250   -1.684558
 C   -9.729550   -3.290070   -0.510739
 C   -9.464221   -2.645684    0.667361
 H   10.376516    0.624546    1.460152
 H   11.058641   -0.829968    0.707733
 H   11.275666    1.283363   -0.743497
 H   10.416062   -0.045156   -1.528047
 H    9.091692    2.342077   -0.127858
 H    9.167306    2.082839   -1.866858
 H    7.840412   -0.018685   -1.642552
 H    6.942530    1.332673   -0.956637
 H    7.608830    0.649967    1.321462
 H    7.323764   -4.554351    0.635397
 H    4.830690   -4.505897    0.322748
 H    3.630769   -2.355520    0.153160
 H    5.361176    0.852923    0.692081
 H    3.873119    2.378154    0.538455
 H    0.898823    0.688018   -0.794438
 H    0.864947    5.413924    0.440400
 H   -1.244134    4.418738   -0.465385
 H   -1.075420   -0.301192   -1.828096
 H   -4.326410   -0.204204   -3.594288
 H   -3.079776   -1.330946   -3.020952
 H   -5.225522   -2.046351   -2.099022
 H   -4.230310   -1.424917   -0.783547
 H   -5.422437    0.781533   -1.382003
 H   -4.501989    0.966281    0.928371
 H   -5.565057    2.110427    0.140312
 H   -4.718566    2.855239    2.418271
 H   -6.471510    2.908700    2.217533
 H   -5.784169    1.852907    4.428046
 H   -5.001530    0.562151    3.512286
 H   -7.288656   -0.186316    4.104870
 H   -7.975606    1.298287    3.467454
 H   -7.460001   -1.750617   -2.541430
 H   -9.235986   -3.483808   -2.614070
 H  -10.505904   -4.050126   -0.551802
 H  -10.009011   -2.864581    1.580469
