17 
6h1u_ligand_ani.xyz
 N    0.720200    1.698693    0.140451
 C    0.645796    0.376810    0.838372
 C    1.446325   -0.617621    0.010624
 O    1.226756   -1.794905   -0.106505
 C   -0.784667   -0.103747    1.072322
 C   -1.664817    0.016785   -0.146122
 O   -2.788506   -0.701335   -0.035031
 O   -1.430754    0.696720   -1.125552
 O    2.500604    0.002175   -0.567564
 H   -0.021112    1.690114   -0.590600
 H    1.646464    1.753386   -0.309284
 H    0.588802    2.480222    0.795886
 H    1.164526    0.443484    1.799238
 H   -0.771981   -1.147435    1.389443
 H   -1.264637    0.470278    1.873041
 H   -3.290605   -0.555492   -0.855126
 H    2.986529   -0.680012   -1.059706
