20 
6h2t_ligand_dft.xyz
 N    0.819358    1.686756    0.480064
 C    1.142940    0.271143    0.870708
 C    1.761560   -0.472540   -0.313238
 O    2.316208    0.378907   -1.187024
 C   -0.072224   -0.448134    1.475500
 C   -1.151822   -0.985694    0.526655
 C   -1.943168    0.037945   -0.245439
 O   -3.085664   -0.441668   -0.689282
 O   -1.587923    1.188192   -0.480816
 O    1.772245   -1.667072   -0.400640
 H    0.756147    2.295861    1.299076
 H   -0.129526    1.674552    0.002230
 H    1.527143    2.062974   -0.158927
 H    1.927767    0.331589    1.632197
 H    2.741739   -0.129100   -1.900189
 H   -0.518286    0.205177    2.234441
 H    0.329135   -1.309938    2.014265
 H   -1.858428   -1.586193    1.106413
 H   -0.713266   -1.678097   -0.202063
 H   -3.540575    0.242705   -1.210908
