20 
6h2t_ligand_xtb.xyz
 N    0.801679    1.683483    0.414963
 C    1.138935    0.312625    0.874577
 C    1.727010   -0.496050   -0.296789
 O    2.331003    0.309452   -1.168754
 C   -0.071210   -0.373389    1.522892
 C   -1.129315   -0.947518    0.573559
 C   -1.908397    0.035270   -0.254323
 O   -3.038004   -0.449413   -0.682624
 O   -1.535210    1.169788   -0.528871
 O    1.663898   -1.681685   -0.386216
 H    0.774901    2.354527    1.185705
 H   -0.197521    1.614885   -0.038480
 H    1.479833    1.994275   -0.290566
 H    1.943230    0.371429    1.618943
 H    2.757076   -0.189778   -1.885973
 H   -0.536898    0.328913    2.216843
 H    0.305113   -1.212679    2.108429
 H   -1.849250   -1.526971    1.153998
 H   -0.663613   -1.657159   -0.116917
 H   -3.540256    0.167424   -1.244501
