44 
6h36_ligand_xtb.xyz
 C   -3.630985   -0.250093   -0.024243
 C   -2.630397   -0.741568    0.788975
 C   -1.480616    0.007467    0.971076
 C   -1.344145    1.236477    0.332861
 C   -2.368392    1.721547   -0.473937
 C   -3.518047    0.971687   -0.655366
 C   -0.129897    2.087044    0.594575
 C    2.162630    2.594745   -0.004943
 C    3.255419    1.611409    0.409910
 C    3.408756    0.511084   -0.647952
 C    2.051736   -0.169680   -0.869867
 C    0.998024    0.872041   -1.250521
 C    4.470271   -0.488060   -0.261461
 C    4.365213   -1.235344    0.905936
 C    5.344516   -2.148575    1.251447
 C    6.446473   -2.331424    0.433764
 C    6.561609   -1.594172   -0.731280
 C    5.580153   -0.680464   -1.073531
 S   -5.122271   -1.201726   -0.229440
 O   -5.792618   -0.787900   -1.427761
 O   -4.834844   -2.591622   -0.025813
 O   -0.128349    2.908601    1.491846
 N    0.917907    1.889595   -0.230056
 N   -6.018147   -0.662444    1.089617
 H   -2.762861   -1.704933    1.254570
 H   -0.688961   -0.355602    1.609165
 H   -2.259568    2.682403   -0.953938
 H   -4.324956    1.309138   -1.285829
 H    2.448622    3.109936   -0.928952
 H    1.985323    3.334149    0.777851
 H    2.988706    1.168929    1.370483
 H    4.199786    2.143356    0.533134
 H    3.708009    0.984719   -1.590557
 H    1.738393   -0.678460    0.042812
 H    2.133185   -0.915459   -1.661940
 H    0.022654    0.401849   -1.382035
 H    1.282899    1.351731   -2.195269
 H    3.512953   -1.106055    1.556810
 H    5.247212   -2.719984    2.162924
 H    7.210801   -3.044591    0.703957
 H    7.417454   -1.730094   -1.376107
 H    5.678974   -0.108357   -1.985519
 H   -6.836184   -0.149062    0.805598
 H   -6.251877   -1.413408    1.718125
