63 
6h3k_ligand_ani.xyz
 C    1.321911  -35.987027  -13.060798
 C    1.237497  -38.301240  -13.903666
 C    1.097737  -33.748346  -12.139426
 C    0.570049  -32.958556  -11.078434
 C    1.901406  -33.310422  -13.223723
 C    2.338190  -34.235957  -14.145576
 C    1.115503  -39.727264  -13.333604
 C    2.217193  -39.982673  -12.298552
 N    2.056668  -35.566907  -14.068104
 C   -2.262517  -38.253973   -7.272484
 C   -2.422408  -39.204880   -8.283637
 C   -2.263836  -38.812994   -9.611701
 C   -1.870668  -37.517735   -9.925371
 C    0.776443  -35.099906  -12.065297
 N   -0.020716  -35.629306  -11.106727
 N   -0.162990  -33.463269  -10.115326
 C   -1.622604  -36.587748   -8.919295
 C   -0.433064  -34.800401  -10.177401
 C   -1.752590  -35.028794   -4.484543
 C   -1.984685  -36.280840   -5.301182
 O   -1.725644  -35.966715   -6.661365
 C   -1.881345  -36.962414   -7.579369
 C   -2.816037  -40.558113   -7.861384
 N   -3.471358  -40.802498   -6.751762
 N   -3.699114  -42.149450   -6.679865
 C   -3.154250  -42.685153   -7.735040
 N   -2.570659  -41.735402   -8.521046
 C   -1.790274  -41.985721   -9.717334
 N   -1.197697  -35.271319   -9.141563
 C    3.183737  -33.827184  -15.320321
 N    1.053838  -37.303105  -12.878419
 C   -0.260937  -39.932013  -12.684177
 C    1.271625  -40.707919  -14.501074
 H    2.229201  -38.141431  -14.345403
 H    0.505732  -38.174287  -14.721192
 H    0.774556  -31.887966  -11.036724
 H    2.164509  -32.260550  -13.320018
 H    2.124608  -39.304433  -11.443581
 H    2.160406  -41.010789  -11.922247
 H    3.211919  -39.840102  -12.738811
 H   -2.463746  -38.572479   -6.252603
 H   -2.465097  -39.507627  -10.422273
 H   -1.780958  -37.216720  -10.961612
 H   -1.945039  -35.233616   -3.427048
 H   -0.718909  -34.686282   -4.588435
 H   -2.421614  -34.226645   -4.809418
 H   -3.020426  -36.631971   -5.197237
 H   -1.316185  -37.090332   -4.977946
 H   -3.143761  -43.739113   -7.979055
 H   -1.376887  -42.994910   -9.659406
 H   -2.401699  -41.911177  -10.623983
 H   -0.961657  -41.274683   -9.775380
 H   -1.324112  -34.625699   -8.374406
 H    4.139076  -34.360662  -15.299514
 H    2.678227  -34.083808  -16.256493
 H    3.380174  -32.751837  -15.310042
 H    0.374588  -37.470358  -12.146810
 H   -0.382913  -39.350739  -11.759546
 H   -1.069352  -39.650825  -13.370555
 H   -0.401852  -40.986342  -12.414660
 H    2.238628  -40.574376  -15.000893
 H    1.214754  -41.745542  -14.152753
 H    0.481421  -40.559454  -15.247392
