51 
6h5x_ligand_ani.xyz
 C    3.468195    0.409310   -1.268422
 C    4.443860   -1.051523    1.492920
 C   -1.663664    0.756929   -0.353003
 C   -3.020097    0.173497    0.042924
 C   -4.131117    0.677162   -0.886540
 C   -5.455875   -0.000038   -0.630171
 C   -6.403687    0.569538    0.220836
 C   -7.603497   -0.081602    0.487681
 C   -7.873088   -1.316435   -0.094964
 C   -6.933825   -1.896705   -0.942225
 C   -5.734511   -1.242370   -1.203881
 C    1.647309   -0.760257   -0.053691
 C    0.754404    0.474942   -0.254464
 C    1.221878    1.664650    0.619395
 C    2.252926    2.572587   -0.045649
 C    4.648477   -0.027583   -2.133237
 C    5.685816   -0.828617   -1.360143
 C    5.017843   -2.047146   -0.739086
 C    3.893664   -1.620529    0.186369
 N    2.959294   -0.705960   -0.477286
 N   -0.584526    0.066073    0.088180
 O    3.529134   -0.366917    2.201313
 O    5.572735   -1.223130    1.885537
 O    1.208797   -1.752201    0.505948
 O   -1.557640    1.786378   -1.005355
 S    3.914185    1.875844   -0.259130
 S   -3.337343    0.501645    1.815193
 H    2.673004    0.734556   -1.938753
 H   -2.967845   -0.921602   -0.013302
 H   -3.805866    0.493366   -1.916453
 H   -4.216880    1.763993   -0.781282
 H   -6.194119    1.529557    0.689098
 H   -8.331067    0.378127    1.152295
 H   -8.810750   -1.826397    0.112290
 H   -7.134257   -2.862915   -1.399308
 H   -4.999286   -1.703821   -1.861852
 H    0.751561    0.787497   -1.304996
 H    1.603849    1.283576    1.572226
 H    0.332925    2.270884    0.823017
 H    2.397689    3.473482    0.560285
 H    1.887945    2.910670   -1.024306
 H    5.096065    0.853196   -2.605730
 H    4.241846   -0.650599   -2.941705
 H    6.491829   -1.139919   -2.031655
 H    6.135264   -0.212059   -0.573214
 H    4.594971   -2.683041   -1.525715
 H    5.735275   -2.642662   -0.167302
 H    3.289540   -2.487612    0.471516
 H   -0.659031   -0.797938    0.610560
 H    3.984673   -0.058028    3.001993
 H   -3.264456    1.839185    1.711585
