33 
6h7j_ligand_ani.xyz
 C    4.174523    1.680217    0.335218
 C    3.710396    0.229215    0.360256
 C    3.987692   -0.433743    1.710470
 N    2.267721    0.184147    0.018397
 C    1.696135   -1.160162   -0.169031
 C    0.561478   -1.057529   -1.202005
 O    1.024679   -0.079469   -2.134692
 C   -0.790521   -0.695194   -0.603537
 C   -1.317138    0.597469   -0.688487
 C   -1.512298   -1.676063    0.068574
 C   -2.742998   -1.380273    0.650103
 C   -3.254781   -0.095445    0.566369
 O   -4.452350    0.306305    1.103300
 C   -2.535894    0.902778   -0.103987
 O   -3.030085    2.165161   -0.193674
 H    5.242622    1.756366    0.562567
 H    4.008776    2.133793   -0.648807
 H    3.628437    2.266007    1.085365
 H    4.249619   -0.333333   -0.413610
 H    5.056370   -0.394186    1.942779
 H    3.683761   -1.485930    1.714887
 H    3.449814    0.085719    2.514176
 H    1.737274    0.685230    0.765394
 H    2.091096    0.664448   -0.889539
 H    1.349409   -1.590152    0.772507
 H    2.476924   -1.814622   -0.569737
 H    0.462642   -2.033890   -1.700107
 H    0.446215   -0.112003   -2.907348
 H   -0.780250    1.379665   -1.217401
 H   -1.111423   -2.685231    0.137679
 H   -3.303600   -2.154358    1.171072
 H   -4.877220   -0.441451    1.541067
 H   -3.882030    2.181283    0.267162
