39 
6h7m_ligand_xtb.xyz
 O    0.902948    2.385888    1.254007
 C    2.209670    1.860586    1.049393
 C    2.062601    0.499035    0.432373
 C    2.883206    0.070145   -0.616978
 O    3.879800    0.881509   -1.022420
 C    2.640806   -1.168660   -1.207078
 C    1.569867   -1.947465   -0.811144
 C    1.036943   -0.323617    0.864898
 C    0.752049   -1.529050    0.228550
 C   -0.533483   -2.253586    0.566575
 O   -0.922737   -2.105667    1.916570
 C   -1.666832   -1.592553   -0.250980
 N   -1.803093   -0.208503    0.246888
 C   -2.592190    0.812546   -0.532415
 C   -1.869020    1.071161   -1.847270
 C   -2.583631    2.068467    0.334051
 C   -4.006700    0.295480   -0.749990
 H    0.991532    3.257014    1.654318
 H    2.743545    1.782931    2.006514
 H    2.789763    2.503387    0.379085
 H    4.391156    0.472897   -1.732748
 H    3.284485   -1.509647   -2.005172
 H    1.373944   -2.882919   -1.312198
 H    0.491387   -0.022595    1.749283
 H   -0.466277   -3.312211    0.284979
 H   -0.321995   -2.596155    2.486321
 H   -1.406115   -1.591325   -1.307923
 H   -2.600245   -2.133078   -0.095095
 H   -0.829817    0.154902    0.351458
 H   -2.177135   -0.282283    1.200984
 H   -2.355033    1.887977   -2.372152
 H   -0.834358    1.356823   -1.670017
 H   -1.892168    0.205036   -2.502617
 H   -1.564128    2.386054    0.546198
 H   -3.087202    2.880006   -0.181862
 H   -3.104503    1.901793    1.274346
 H   -4.608249    1.070433   -1.215570
 H   -4.477799    0.032358    0.194265
 H   -4.018948   -0.570647   -1.405783
