52 
6h7y_ligand_ani.xyz
 O   -0.066911    0.591698    1.045390
 C   -1.050154    1.007946    1.639393
 O   -1.846578    0.235251    2.361883
 C   -1.519869    2.447746    1.627939
 C   -2.983632    2.575057    1.169375
 C   -3.190256    2.254687   -0.332593
 C   -2.810586    3.464415   -1.163831
 O   -3.715548    4.448401   -1.057082
 O   -1.797781    3.564162   -1.813010
 N   -2.412462    1.135480   -0.777576
 C   -2.874523   -0.154754   -0.696662
 O   -4.054794   -0.448405   -0.563857
 N   -1.857133   -1.093532   -0.796751
 C   -2.169026   -2.498557   -0.711619
 C   -2.243581   -2.993928    0.731313
 O   -1.832227   -2.419592    1.720481
 O   -2.818477   -4.195520    0.812712
 C   -1.194944   -3.356289   -1.549363
 C    0.267045   -2.896091   -1.524188
 C    0.945772   -2.903635   -0.147007
 C    2.330288   -2.284182   -0.251448
 O    3.272749   -2.916890   -0.697693
 N    2.390457   -0.972433    0.141763
 C    3.494303   -0.105274    0.100658
 C    4.783688   -0.518702   -0.235038
 C    5.820098    0.407951   -0.256400
 C    5.562036    1.732241    0.056484
 F    6.572786    2.619578    0.028563
 C    4.291366    2.163514    0.396985
 C    3.255998    1.235906    0.421218
 H   -1.609691   -0.708137    2.227937
 H   -0.837674    3.025443    0.999266
 H   -1.431826    2.830544    2.651091
 H   -3.354803    3.585410    1.364138
 H   -3.590161    1.876846    1.752762
 H   -4.246709    2.022900   -0.501544
 H   -3.376452    5.191265   -1.583823
 H   -1.486112    1.317822   -1.137578
 H   -0.962894   -0.797279   -0.417908
 H   -3.179208   -2.626857   -1.110976
 H   -2.816462   -4.442009    1.752878
 H   -1.286673   -4.398483   -1.220835
 H   -1.538489   -3.320031   -2.588895
 H    0.851386   -3.537377   -2.194537
 H    0.321928   -1.886997   -1.955314
 H    1.068967   -3.934169    0.199348
 H    0.351380   -2.376996    0.607530
 H    1.539948   -0.531861    0.478755
 H    4.969058   -1.556028   -0.480895
 H    6.830207    0.107710   -0.518390
 H    4.126921    3.209423    0.637415
 H    2.248651    1.544898    0.688552
