52 
6h7y_ligand_xtb.xyz
 O   -0.165707    0.530382    0.979348
 C   -1.123132    0.993679    1.568060
 O   -1.912697    0.280530    2.338194
 C   -1.524420    2.454465    1.539015
 C   -3.010389    2.587490    1.187678
 C   -3.268455    2.166016   -0.281539
 C   -2.907096    3.319181   -1.201558
 O   -3.788350    4.313788   -1.133829
 O   -1.921682    3.351324   -1.888838
 N   -2.457960    1.033016   -0.633561
 C   -2.878213   -0.266687   -0.579362
 O   -4.017664   -0.604929   -0.348775
 N   -1.847567   -1.140434   -0.839934
 C   -2.038556   -2.560887   -0.719149
 C   -1.982505   -3.040955    0.725099
 O   -1.762357   -2.345096    1.689827
 O   -2.229187   -4.337792    0.832445
 C   -1.055858   -3.338151   -1.617064
 C    0.388031   -2.834213   -1.553703
 C    1.019258   -2.909433   -0.158690
 C    2.399781   -2.265920   -0.212512
 O    3.390554   -2.886277   -0.529945
 N    2.367709   -0.938513    0.083877
 C    3.415869   -0.015624    0.068706
 C    4.723344   -0.350912   -0.274994
 C    5.708735    0.618993   -0.274342
 C    5.381074    1.916944    0.069167
 F    6.346073    2.865260    0.069750
 C    4.089491    2.273755    0.413238
 C    3.109358    1.302097    0.411337
 H   -1.747987   -0.688249    2.257965
 H   -0.894122    2.989341    0.827570
 H   -1.357496    2.861682    2.537888
 H   -3.349101    3.612834    1.334797
 H   -3.584036    1.932848    1.843350
 H   -4.326393    1.913118   -0.406427
 H   -3.527996    5.047088   -1.715085
 H   -1.569532    1.256714   -1.058944
 H   -0.920306   -0.799109   -0.630077
 H   -3.066212   -2.771170   -1.045390
 H   -2.223519   -4.620117    1.762068
 H   -1.099126   -4.390747   -1.336657
 H   -1.398721   -3.247026   -2.648241
 H    0.988993   -3.441783   -2.232985
 H    0.431856   -1.806883   -1.921846
 H    1.135031   -3.954082    0.133251
 H    0.408070   -2.396417    0.580828
 H    1.483729   -0.536921    0.378652
 H    4.961102   -1.367284   -0.539219
 H    6.725343    0.374539   -0.537618
 H    3.865617    3.295677    0.675450
 H    2.093709    1.555640    0.676501
