100 
6h96_ligand_dft.xyz
 C   -8.939194    2.385464   -0.180888
 C   -6.478435    2.601966   -0.047795
 C   -4.106315    2.767889   -0.485769
 C   -2.972364    1.874054   -0.970006
 C    0.391889    1.465118    0.298741
 C    1.983363    0.768689   -1.385661
 C  -18.066730   -2.045019    1.169797
 C  -17.494919   -2.298502   -0.077730
 C  -16.134457   -2.112375   -0.264528
 C  -15.307107   -1.671802    0.779193
 C  -13.861957   -1.450829    0.618454
 C  -12.994082   -2.165143   -0.121548
 C  -13.304543   -3.435519   -0.862616
 C  -11.538442   -1.783490   -0.133785
 C  -10.072634    0.249840   -0.100168
 C  -10.108275    1.647512   -0.208297
 C   -7.702721    1.748571   -0.057435
 C   -3.543186    3.414077    0.778311
 C   -2.040886    3.286889    0.621547
 C   -0.519256    1.790209   -0.703725
 C    1.638534    0.961740   -0.045633
 C    3.309049    0.226136   -1.832547
 C    5.666798    0.010782   -1.050355
 C    6.149616   -0.920641   -1.976137
 C    7.484072   -1.288883   -1.925103
 C    8.384527   -0.792147   -0.975366
 C    9.790936   -1.317720   -1.051953
 C   12.019413   -1.145129    0.033059
 C   12.754186   -1.990196   -0.818375
 C   14.086925   -2.217000   -0.547675
 C   14.733079   -1.624369    0.548263
 C   16.144513   -1.860528    0.837054
 C   13.999447   -0.768716    1.400049
 C   12.646080   -0.543970    1.132607
 C   11.574876   -0.229507    3.195332
 C    7.887940    0.139527   -0.054526
 C    6.557530    0.547403   -0.118314
 C    6.244581    2.830370    0.312564
 C    1.049821    1.070154   -2.377503
 C   -0.191278    1.590291   -2.044313
 C   -7.673801    0.358258    0.064514
 C   -8.839856   -0.396004    0.045825
 C  -15.907065   -1.396065    2.013314
 C  -17.266522   -1.586988    2.217799
 N  -11.300325   -0.425376   -0.128934
 N   -5.292989    1.970048   -0.322879
 N   -1.095968    3.874111    1.225526
 N   -1.802148    2.306961   -0.366228
 N    4.342712    0.442483   -0.949208
 N   10.673427   -0.826297   -0.123331
 O  -19.401939   -2.249139    1.298212
 O   16.766140   -2.681474   -0.021033
 O   16.756066   -1.368138    1.781728
 O   14.530511   -0.158684    2.467903
 O   11.906273    0.303506    1.917523
 O   10.097832   -2.137025   -1.904184
 O    8.666838    0.680595    0.919262
 O    6.130204    1.489095    0.804337
 O    3.446544   -0.334544   -2.904721
 O   -3.089582    0.954845   -1.747829
 O   -6.510355    3.800165    0.199983
 O  -10.654652   -2.623344   -0.160517
 H   -8.964630    3.467365   -0.256566
 H   -4.264375    3.544593   -1.249094
 H    0.131462    1.618098    1.338078
 H  -18.133220   -2.632254   -0.888834
 H  -15.710401   -2.286920   -1.247860
 H  -13.463986   -0.637679    1.226288
 H  -13.466887   -3.250064   -1.931578
 H  -14.193715   -3.927109   -0.461342
 H  -12.448940   -4.109974   -0.775615
 H  -11.063498    2.156314   -0.314920
 H   -3.858655    4.449303    0.909437
 H   -3.860423    2.844535    1.659005
 H    2.319863    0.681957    0.753243
 H    5.483352   -1.332069   -2.720132
 H    7.872480   -2.008026   -2.637635
 H   12.263593   -2.451614   -1.662005
 H   14.659987   -2.868706   -1.197503
 H   11.023362   -1.172284    3.090784
 H   10.939604    0.513519    3.680737
 H   12.476076   -0.391290    3.793540
 H    5.639930    2.965742   -0.590763
 H    7.289009    3.070286    0.083986
 H    5.877337    3.483618    1.105503
 H    1.313898    0.894452   -3.414588
 H   -0.908975    1.828004   -2.819982
 H   -6.730867   -0.161687    0.208309
 H   -8.805797   -1.471666    0.140509
 H  -15.294013   -1.036591    2.835919
 H  -17.705967   -1.377083    3.190416
 H  -12.113405    0.159103   -0.254066
 H   -5.300825    1.107957   -0.853934
 H   -1.478348    4.543228    1.892832
 H    4.156469    1.005532   -0.131486
 H   10.335412   -0.141367    0.544758
 H  -19.673510   -2.039607    2.199942
 H   17.683767   -2.746088    0.287114
 H   15.476003   -0.425861    2.510021
 H    8.075931    1.167586    1.515517
