47 
6h9b_ligand_xtb.xyz
 C    1.305836   -0.946135   -0.639044
 C    1.193500    0.933404    1.466590
 C    0.084660   -0.572437   -0.091754
 C    2.411071    0.555065    0.916897
 C   -1.176891   -1.143286   -0.586391
 C    3.860215   -0.534998   -0.464410
 C    5.920537   -1.213164   -1.447719
 C    4.571547    0.320405    0.412953
 C   -5.846193    0.079418    0.638318
 N    3.680272    0.967249    1.236425
 C   -3.552162   -0.562602    0.096027
 C   -4.920387   -1.961886    1.504691
 N   -4.528557    1.516751   -0.700864
 C   -4.626042    0.363706   -0.009095
 C   -5.989774   -1.063273    1.374007
 C    0.047515    0.366797    0.950467
 C    2.470043   -0.384650   -0.139533
 C   -3.329357    3.106155   -2.038310
 C    4.544208   -1.303492   -1.396594
 C    5.955949    0.404694    0.353337
 C    6.613736   -0.369244   -0.583021
 C   -1.281716   -2.389743   -1.045948
 C    3.985306    1.921933    2.263103
 C   -3.726933   -1.717704    0.882517
 C   -3.400724    1.811065   -1.291471
 C   -2.278347    0.958492   -1.252086
 C   -2.344307   -0.237599   -0.580101
 H    1.347952   -1.647895   -1.457885
 H    1.137743    1.649136    2.272744
 H    6.472133   -1.801939   -2.165358
 H   -6.647355    0.794616    0.536273
 H   -5.044738   -2.850251    2.106907
 H   -6.925264   -1.278133    1.869948
 H   -0.910501    0.642005    1.368099
 H   -4.260647    3.650474   -1.914721
 H   -2.502617    3.710159   -1.667970
 H   -3.161604    2.918323   -3.097911
 H    4.005405   -1.957022   -2.066050
 H    6.514682    1.051862    1.013275
 H    7.690863   -0.318453   -0.645774
 H   -2.213017   -2.771745   -1.428998
 H   -0.442069   -3.063446   -1.060070
 H    3.532865    2.891222    2.034844
 H    3.605719    1.578823    3.229335
 H    5.062619    2.047882    2.336312
 H   -2.899674   -2.403267    0.994834
 H   -1.372239    1.244133   -1.767357
