99 
6hai_ligand_ani.xyz
 C    7.764361    0.307478   -0.158914
 C    6.526642    2.325789    0.787072
 C    4.105698    2.378502    0.904905
 C    2.939893    1.440926    0.657056
 C    0.097686    0.624591    1.017152
 C   -2.124460    0.751154    0.073594
 C   18.202663   -1.994610   -0.520675
 C   17.592887   -1.448944   -1.650194
 C   16.211781   -1.314511   -1.684178
 C   15.409240   -1.735178   -0.619508
 C   13.947497   -1.573228   -0.722029
 C   12.999063   -2.374300   -0.218416
 C   13.217611   -3.794652    0.211693
 C   11.559712   -1.923782   -0.140181
 C   10.141216    0.104019    0.157235
 C    8.938684   -0.407508   -0.340407
 C    7.756334    1.520445    0.530037
 C    3.704937    3.633309    0.137289
 C    2.194364    3.549639    0.080388
 C    0.491039    1.706922    0.227341
 C   -1.200831    0.152804    0.930032
 C   -3.509677    0.186094    0.044390
 C   -5.874193    0.883397   -0.352554
 C   -6.468284   -0.378774   -0.370814
 C   -7.845400   -0.474931   -0.473184
 C   -8.672392    0.655808   -0.553768
 C  -10.153591    0.558187   -0.654860
 C  -12.066672   -1.006759   -0.284833
 C  -13.093718   -0.235470   -0.830359
 C  -14.384691   -0.733618   -0.831771
 C  -14.683502   -1.997670   -0.301139
 C  -16.052357   -2.525406   -0.326507
 C  -13.647863   -2.773228    0.265426
 C  -12.346042   -2.259953    0.282752
 C  -11.357500   -3.395983    2.135007
 C   -8.061529    1.929957   -0.566549
 C   -6.671464    2.031768   -0.436065
 C   -6.301779    4.092471    0.660980
 C   -1.711545    1.813640   -0.732346
 C   -0.414017    2.294058   -0.660639
 C    8.965089    2.033179    1.004868
 C   10.146705    1.337144    0.818109
 C   16.044578   -2.261553    0.510905
 C   17.423786   -2.391969    0.565724
 N   11.367806   -0.562380   -0.020652
 N    5.329045    1.737478    0.499645
 N    1.825062    2.213647    0.326969
 N   -4.484749    1.087564   -0.297446
 N  -10.711039   -0.623968   -0.275899
 O   19.550087   -2.156081   -0.416631
 O    1.428941    4.453046   -0.149125
 O  -16.963243   -1.702281   -0.866711
 O  -16.382314   -3.626144    0.100224
 O  -13.847834   -3.997673    0.780488
 O  -11.279131   -2.970448    0.773512
 O  -10.827536    1.520299   -1.043947
 O   -8.758615    3.067701   -0.710000
 O   -6.033196    3.248728   -0.458382
 O   -3.724309   -0.979934    0.338816
 O    2.997106    0.235015    0.716473
 O    6.591878    3.465200    1.230376
 O   10.653000   -2.737390   -0.158150
 H    6.849570   -0.099514   -0.587223
 H    4.126065    2.610371    1.976632
 H    0.806271    0.146786    1.682758
 H   18.195601   -1.125460   -2.498128
 H   15.737225   -0.888412   -2.564906
 H   13.639564   -0.740643   -1.361233
 H   13.151422   -3.892790    1.303017
 H   12.423478   -4.423065   -0.201437
 H   14.190441   -4.166935   -0.121881
 H    8.929031   -1.360979   -0.853022
 H    4.095184    3.587129   -0.882196
 H    4.042284    4.555212    0.605631
 H   -1.520454   -0.699275    1.523121
 H   -5.846572   -1.260010   -0.293299
 H   -8.273529   -1.473217   -0.526768
 H  -12.867000    0.736070   -1.244482
 H  -15.190670   -0.144346   -1.253892
 H  -11.754827   -2.589382    2.761398
 H  -10.331278   -3.619626    2.436712
 H  -11.976935   -4.288988    2.238315
 H   -6.104160    3.552889    1.595357
 H   -7.333658    4.450311    0.650701
 H   -5.616512    4.938291    0.572193
 H   -2.395994    2.269093   -1.446804
 H   -0.112150    3.134575   -1.271894
 H    8.956072    2.989246    1.518746
 H   11.079412    1.749976    1.196264
 H   15.448577   -2.560492    1.370359
 H   17.912912   -2.805019    1.441408
 H   12.188332   -0.009782    0.178668
 H    5.249139    0.733259    0.409512
 H   -4.216494    2.057969   -0.375784
 H  -10.112820   -1.312875    0.154210
 H   19.969417   -1.845523   -1.228951
 H  -17.812538   -2.171261   -0.820538
 H  -14.799541   -4.212096    0.667989
 H   -9.686156    2.796293   -0.906817
