59 
6hb7_ligand_ani.xyz
 C    1.677053    3.814876    0.596342
 N    1.720267    2.705800   -0.353829
 C    0.573194    2.372979   -1.074331
 O   -0.504377    2.917741   -0.834802
 C    0.743570    1.320822   -2.064210
 C    1.861828    0.580226   -2.052549
 N    2.886392    0.842226   -1.165393
 C    3.982404   -0.120217   -1.003169
 O    3.564204   -1.354232   -1.545709
 C    3.593068   -2.404725   -0.570719
 C    2.177522   -2.729348   -0.119515
 O    1.604211   -1.533199    0.456947
 S    0.012001   -1.421185    0.596781
 O   -0.588861   -1.445712   -0.725149
 O   -0.462292   -2.347780    1.598885
 N    0.039910    0.159371    1.161354
 C   -1.041798    0.945999    1.608735
 O   -0.899425    1.679040    2.562989
 C   -2.383168    0.872256    0.883992
 N   -2.246271    0.745354   -0.588534
 C   -3.275399   -0.236785    1.476363
 C   -4.569828   -0.368391    0.715184
 C   -4.774870   -1.429290   -0.172802
 C   -5.941126   -1.533797   -0.919326
 C   -6.937298   -0.567070   -0.785648
 O   -8.061350   -0.715626   -1.540243
 C   -6.755341    0.496917    0.096545
 C   -5.579876    0.588461    0.834258
 C    4.547574   -1.901927    0.513449
 O    5.858126   -2.214664    0.110952
 C    4.338569   -0.386877    0.472204
 O    5.507822    0.281791    0.853902
 C    2.918579    2.017544   -0.434735
 O    3.917195    2.404732    0.156773
 H    2.357027    4.608467    0.282044
 H    1.984713    3.460731    1.581310
 H    0.651382    4.175266    0.621844
 H   -0.074394    1.118358   -2.744420
 H    2.036743   -0.274723   -2.691636
 H    4.865301    0.247271   -1.543800
 H    4.021642   -3.288676   -1.050954
 H    2.176050   -3.515867    0.642382
 H    1.582555   -3.046571   -0.981011
 H    0.883731    0.363669    1.693288
 H   -2.845810    1.836481    1.100117
 H   -1.780025    1.614020   -0.930018
 H   -1.688872   -0.101601   -0.832276
 H   -3.184660    0.677722   -1.012197
 H   -2.738848   -1.190842    1.469403
 H   -3.465973    0.019739    2.523968
 H   -3.994094   -2.180226   -0.288861
 H   -6.097215   -2.354575   -1.611820
 H   -8.663971    0.015728   -1.355287
 H   -7.529875    1.254962    0.205872
 H   -5.444726    1.427795    1.514768
 H    4.325943   -2.317429    1.508723
 H    6.406006   -1.460183    0.379463
 H    3.495165   -0.115152    1.115666
 H    5.318117    1.228710    0.722997
