41 
6hcu_ligand_ani.xyz
 C    3.797580   -0.331975   -1.543345
 C    2.909478    0.464347   -0.586753
 C    5.174513   -0.529265   -0.942237
 C   -5.552375   -1.466123   -0.341356
 C   -3.654694    1.764604   -0.583646
 C   -1.466877    1.224588    0.348714
 C   -2.283046    2.119447   -0.222257
 C    5.147747   -1.172940    0.429539
 C    4.238850   -0.381090    1.370513
 C   -0.046150    1.536090    0.723459
 C   -3.368764   -1.825300    0.574635
 C   -3.064909   -0.490190    0.301433
 F   -6.765408   -1.952786   -0.651920
 C   -5.260669   -0.147848   -0.614064
 C   -4.621180   -2.318116    0.250521
 C   -3.996199    0.352700   -0.289680
 O   -4.444083    2.546537   -1.085939
 O   -1.809456   -0.060957    0.650509
 O    0.498001    2.569435    0.361413
 N    0.560491    0.559838    1.446636
 C    1.967708    0.610772    1.771443
 C    2.830047   -0.213234    0.793893
 O    2.287697   -1.522590    0.658261
 F    5.782987    0.703340   -0.833874
 F    5.952379   -1.269560   -1.789803
 H    3.906490    0.176339   -2.506152
 H    3.361205   -1.319783   -1.722489
 H    1.905351    0.578668   -1.010966
 H    3.319410    1.473479   -0.454458
 H   -1.926289    3.121162   -0.419872
 H    6.172899   -1.221627    0.810406
 H    4.772509   -2.194937    0.318269
 H    4.664280    0.615477    1.543744
 H    4.170443   -0.883066    2.341905
 H   -2.615375   -2.453545    1.036307
 H   -5.994977    0.504259   -1.076342
 H   -4.892061   -3.349977    0.447154
 H   -0.005044   -0.194991    1.799569
 H    2.101854    0.221101    2.786148
 H    2.280592    1.656981    1.749674
 H    1.362010   -1.415555    0.392211
