77 
6hdo_ligand_dft.xyz
 C    3.294971   -1.739587    0.802582
 C    1.951209   -1.980175    1.103267
 C   -1.141692   -1.999827    0.211186
 C   -0.767618   -1.629883   -1.235062
 C    8.597789   -0.548042    1.546227
 C    7.486914   -0.374717    0.545460
 C    7.751514   -0.022170   -0.780407
 N    6.815050    0.172437   -1.709105
 C    5.544906    0.023079   -1.343401
 C    5.146667   -0.324636   -0.048989
 C    6.148795   -0.530085    0.899078
 C    3.714244   -0.515402    0.291222
 C    0.999555   -0.994966    0.905566
 N   -0.406258   -1.155061    1.159262
 C   -1.678578   -2.305623   -2.256560
 C   -1.829608   -3.822605   -2.051244
 C   -2.969408   -3.979078   -1.006188
 C   -3.429688   -2.544183   -0.706053
 N   -3.089501   -1.833050   -1.995460
 C   -2.658540   -1.793717    0.395847
 C   -3.228580   -2.068641    1.804275
 C   -3.361699   -0.845588    2.750920
 C   -3.971592    0.461519    2.170811
 C   -5.177965    0.159589    1.251283
 C   -5.672426    1.331919    0.405970
 S   -4.334438    1.970395   -0.607770
 O   -4.802088    3.072257   -1.428816
 O   -3.699364    0.804536   -1.273896
 C   -3.227072    2.518989    0.679837
 C   -2.841006    1.339192    1.573122
 C    1.422113    0.256518    0.423686
 N    0.494257    1.255859    0.260618
 C    0.738507    2.542719   -0.168561
 O   -0.177180    3.355782   -0.248978
 C    2.144813    2.826986   -0.488822
 C    2.450915    4.221495   -0.941137
 C    3.078863    1.857611   -0.340945
 C    2.764490    0.518187    0.108509
 H    4.026154   -2.529106    0.943915
 H    1.647898   -2.950979    1.487863
 H   -0.894954   -3.063698    0.371042
 H    0.263726   -1.921415   -1.451367
 H   -0.825785   -0.541654   -1.361038
 H    8.367761   -1.340893    2.264104
 H    8.756580    0.376252    2.113278
 H    9.541223   -0.797967    1.052925
 H    8.781019    0.108164   -1.110131
 H    4.798126    0.172456   -2.121961
 H    5.881528   -0.798991    1.918953
 H   -0.546708   -1.507780    2.100955
 H   -1.399781   -2.026048   -3.273725
 H   -0.886328   -4.258376   -1.715900
 H   -2.094798   -4.312199   -2.992020
 H   -3.793643   -4.569093   -1.414841
 H   -2.640497   -4.477414   -0.091961
 H   -4.506714   -2.460286   -0.548115
 H   -3.711781   -2.128994   -2.751896
 H   -3.197708   -0.804569   -1.890385
 H   -2.837367   -0.744446    0.171846
 H   -4.222979   -2.518503    1.694911
 H   -2.630084   -2.834335    2.314999
 H   -3.974258   -1.176782    3.596693
 H   -2.382660   -0.593653    3.173605
 H   -4.374669    1.025611    3.021310
 H   -6.010089   -0.195744    1.868975
 H   -4.949502   -0.649635    0.556189
 H   -6.029611    2.177659    1.001463
 H   -6.471224    1.037244   -0.280560
 H   -3.760828    3.312705    1.211746
 H   -2.337205    2.951323    0.201811
 H   -2.158526    0.705630    1.009947
 H   -2.248342    1.738433    2.403485
 H   -0.443478    1.045275    0.573653
 H    1.899783    4.458102   -1.857228
 H    2.129459    4.948270   -0.188406
 H    3.519499    4.351669   -1.127423
 H    4.117212    2.092271   -0.554952
