77 
6hdo_ligand_xtb.xyz
 C    3.250775   -1.716112    0.886517
 C    1.912321   -1.958837    1.172401
 C   -1.162201   -1.983975    0.201839
 C   -0.771230   -1.558921   -1.223140
 C    8.563530   -0.680520    1.461210
 C    7.430497   -0.426122    0.521153
 C    7.666314    0.008099   -0.783302
 N    6.709468    0.241600   -1.660478
 C    5.455830    0.076112   -1.290099
 C    5.083772   -0.327732   -0.007268
 C    6.106428   -0.592553    0.900783
 C    3.671495   -0.509468    0.350274
 C    0.957887   -0.990112    0.928071
 N   -0.446450   -1.157754    1.174734
 C   -1.671259   -2.191014   -2.277577
 C   -1.791158   -3.711383   -2.124023
 C   -2.929477   -3.906703   -1.104051
 C   -3.414095   -2.488091   -0.790874
 N   -3.065458   -1.737419   -2.028841
 C   -2.680667   -1.765868    0.353783
 C   -3.279685   -2.081952    1.736752
 C   -3.426399   -0.891740    2.711189
 C   -3.999798    0.443515    2.167194
 C   -5.167256    0.179414    1.199062
 C   -5.611995    1.382045    0.391867
 S   -4.176767    1.934310   -0.571051
 O   -4.540041    2.972649   -1.477890
 O   -3.567911    0.744986   -1.189915
 C   -3.120922    2.493972    0.770096
 C   -2.817334    1.301906    1.660643
 C    1.377490    0.253178    0.431910
 N    0.456413    1.239994    0.239262
 C    0.703024    2.520907   -0.185557
 O   -0.229033    3.307572   -0.274774
 C    2.104107    2.798626   -0.482436
 C    2.421829    4.181782   -0.938014
 C    3.041632    1.835877   -0.314226
 C    2.724866    0.514933    0.137319
 H    3.977604   -2.494022    1.064169
 H    1.618957   -2.914103    1.584503
 H   -0.917807   -3.049379    0.339515
 H    0.264284   -1.837269   -1.421182
 H   -0.842629   -0.472818   -1.304703
 H    8.209115   -1.113732    2.393089
 H    9.079536    0.252264    1.685807
 H    9.286845   -1.356597    1.009089
 H    8.675472    0.171904   -1.137078
 H    4.710222    0.254259   -2.054407
 H    5.862552   -0.907543    1.906371
 H   -0.578134   -1.555267    2.099912
 H   -1.344336   -1.890581   -3.274455
 H   -0.852115   -4.143923   -1.788450
 H   -2.042543   -4.175623   -3.076821
 H   -3.736331   -4.498126   -1.535363
 H   -2.602350   -4.416559   -0.201620
 H   -4.493369   -2.455418   -0.627317
 H   -3.669821   -2.004680   -2.808435
 H   -3.172466   -0.698241   -1.858785
 H   -2.848577   -0.709818    0.158669
 H   -4.267315   -2.523097    1.591470
 H   -2.679910   -2.843863    2.238711
 H   -4.073287   -1.242348    3.516928
 H   -2.457310   -0.669100    3.158162
 H   -4.425674    0.978439    3.023028
 H   -6.007422   -0.196246    1.789107
 H   -4.907584   -0.592452    0.481397
 H   -5.896194    2.234133    1.001387
 H   -6.424920    1.138578   -0.287000
 H   -3.694828    3.270019    1.267207
 H   -2.205362    2.930574    0.358830
 H   -2.119934    0.653737    1.135189
 H   -2.286691    1.667841    2.544108
 H   -0.489828    1.018719    0.524306
 H    1.823186    4.426916   -1.814059
 H    2.150833    4.896312   -0.161675
 H    3.476379    4.287040   -1.174285
 H    4.078168    2.068943   -0.509585
