56 
6hgf_ligand_xtb.xyz
 C    3.277129   -1.519828   -0.474800
 C    4.794093   -1.549339   -0.339022
 C    5.392758   -0.213993   -0.714691
 C    4.608242    0.936305   -0.273103
 C    3.383534    0.863415    0.260299
 C    2.728875    2.079364    0.834773
 C    1.316228    2.262703    0.290576
 C    0.469334    1.011078    0.511767
 C    1.164803   -0.199228   -0.136722
 C    2.613595   -0.431498    0.388858
 C   -1.120378   -1.213844   -0.685569
 C    0.289960   -1.474116   -0.119370
 C   -1.800366   -0.032701   -0.001005
 C   -0.889665    1.190600   -0.157329
 C   -1.778807    2.357404    0.269113
 C   -3.166263    1.976217   -0.285450
 C   -3.074367    0.507338   -0.750903
 C   -2.143555   -0.365565    1.450500
 C    2.675660   -0.835344    1.871365
 C   -4.265371   -0.394047   -0.486400
 C   -5.307735   -0.055667    0.555232
 O    6.458635   -0.105921   -1.283588
 O    0.241903   -2.032846    1.176521
 O   -2.855067    0.509816   -2.147079
 O   -4.409055   -1.399067   -1.155147
 O   -6.186410   -1.122732    0.748270
 H    3.033120   -1.339025   -1.525366
 H    2.879211   -2.496394   -0.197062
 H    5.081473   -1.760641    0.694016
 H    5.224684   -2.329658   -0.968785
 H    5.106717    1.892748   -0.362912
 H    3.330660    2.964570    0.622636
 H    2.679090    1.964198    1.921121
 H    0.847683    3.118180    0.779035
 H    1.370043    2.474135   -0.779990
 H    0.340545    0.845537    1.582830
 H    1.275011    0.051085   -1.200520
 H   -1.018736   -0.999490   -1.750839
 H   -1.720314   -2.123215   -0.579168
 H    0.761257   -2.207003   -0.795791
 H   -0.714684    1.303927   -1.233753
 H   -1.436253    3.302426   -0.146516
 H   -1.800222    2.453409    1.354675
 H   -3.414127    2.577372   -1.159016
 H   -3.943964    2.118826    0.460148
 H   -2.636371    0.465622    1.944991
 H   -2.802661   -1.231640    1.490029
 H   -1.241505   -0.608493    2.002470
 H    3.694459   -0.732605    2.239759
 H    2.030744   -0.207572    2.476650
 H    2.355541   -1.863337    1.999903
 H   -5.854961    0.825097    0.177158
 H   -4.856921    0.208358    1.515173
 H   -0.373280   -2.774049    1.164290
 H   -3.148344   -0.347864   -2.489008
 H   -6.054151   -1.734026    0.003311
