56 
6hgg_ligand_ani.xyz
 C    3.269181   -1.562745   -0.394096
 C    4.790165   -1.604187   -0.313800
 C    5.405215   -0.282059   -0.737387
 C    4.630534    0.925161   -0.370419
 C    3.415354    0.876214    0.193579
 C    2.770166    2.124311    0.753507
 C    1.335516    2.295012    0.257794
 C    0.473605    1.051550    0.506109
 C    1.172720   -0.192208   -0.104935
 C    2.631359   -0.414005    0.422456
 C   -1.119077   -1.203093   -0.649821
 C    0.300221   -1.463721   -0.106260
 C   -1.805748   -0.017593    0.025287
 C   -0.897236    1.209602   -0.152026
 C   -1.800291    2.391981    0.227393
 C   -3.226611    1.953640   -0.223860
 C   -3.085712    0.493275   -0.716676
 C   -2.137780   -0.296995    1.497856
 C    2.708732   -0.736285    1.927539
 C   -4.294655   -0.407096   -0.503504
 C   -5.353981   -0.138554    0.549218
 O    6.476380   -0.212238   -1.308906
 O    0.263499   -2.017342    1.202825
 O   -2.842760    0.535459   -2.111230
 O   -4.429434   -1.387208   -1.218998
 O   -6.231816   -1.214260    0.656668
 H    2.978298   -1.450909   -1.447737
 H    2.852798   -2.516647   -0.045742
 H    5.118127   -1.818496    0.714017
 H    5.206015   -2.390849   -0.948575
 H    5.116734    1.879873   -0.557904
 H    3.372942    3.003384    0.497950
 H    2.771717    2.054015    1.850479
 H    0.882575    3.176966    0.729131
 H    1.360131    2.491655   -0.823932
 H    0.349848    0.916207    1.590630
 H    1.302848    0.066019   -1.169048
 H   -1.027517   -1.000449   -1.723991
 H   -1.734353   -2.110136   -0.552973
 H    0.766900   -2.198487   -0.780702
 H   -0.706375    1.294490   -1.232857
 H   -1.485040    3.323523   -0.255708
 H   -1.781409    2.567435    1.310176
 H   -3.608481    2.553742   -1.053783
 H   -3.935966    2.049297    0.605274
 H   -2.673193    0.538000    1.963256
 H   -2.770567   -1.187543    1.577709
 H   -1.239114   -0.483310    2.086942
 H    3.752312   -0.698458    2.259035
 H    2.153258    0.001325    2.513131
 H    2.298930   -1.722990    2.148912
 H   -5.882129    0.787647    0.269058
 H   -4.868866    0.054202    1.515938
 H   -0.425224   -2.693177    1.208932
 H   -3.083465   -0.346747   -2.435219
 H   -6.038754   -1.788107   -0.103005
