55 
6hgi_ligand_dft.xyz
 C    3.192754   -1.552356   -0.394436
 C    4.719165   -1.558769   -0.364721
 C    5.279872   -0.254701   -0.893977
 C    4.498712    0.951855   -0.562428
 C    3.304100    0.924322    0.050688
 C    2.656128    2.197247    0.528169
 C    1.193168    2.307321    0.098951
 C    0.379044    1.057251    0.447621
 C    1.081087   -0.195885   -0.127944
 C    2.558716   -0.369880    0.368631
 C    0.231858   -1.484250   -0.066547
 C   -1.213372   -1.275058   -0.554280
 C   -1.902277   -0.077965    0.103773
 C   -1.021229    1.159743   -0.148987
 C   -1.913959    2.348321    0.230789
 C   -3.350126    1.881366   -0.135021
 C   -3.199503    0.399715   -0.586840
 C   -2.170259   -0.322503    1.600765
 C    2.684502   -0.601844    1.893338
 C   -4.423069   -0.471282   -0.434342
 C   -5.792657    0.149715   -0.670002
 O    6.333975   -0.191313   -1.499947
 O    0.268891   -2.012044    1.253790
 O   -4.365842   -1.663513   -0.190792
 O   -6.794456   -0.815578   -0.654058
 H    2.808234   -2.491958    0.015633
 H    2.873783   -1.506760   -1.445099
 H    5.131309   -2.383121   -0.952845
 H    5.086554   -1.682993    0.663069
 H    4.986230    1.898022   -0.786977
 H    2.706784    2.215380    1.626060
 H    3.225762    3.063231    0.176147
 H    0.741264    3.192901    0.560160
 H    1.149912    2.460018   -0.989212
 H    0.301909    0.975451    1.539465
 H    1.173786    0.003037   -1.209281
 H    0.693428   -2.213375   -0.749113
 H   -1.181826   -1.116409   -1.641454
 H   -1.787499   -2.196376   -0.396373
 H   -0.880857    1.209553   -1.242826
 H   -1.632884    3.262063   -0.299793
 H   -1.835680    2.563190    1.302486
 H   -3.794483    2.494628   -0.923862
 H   -4.010299    1.959563    0.734362
 H   -3.016203    0.400740   -1.674509
 H   -2.790871   -1.214458    1.725382
 H   -2.701009    0.517020    2.062326
 H   -1.242561   -0.484926    2.149866
 H    3.735382   -0.535852    2.195101
 H    2.132931    0.145816    2.469779
 H    2.290600   -1.579545    2.167676
 H   -5.771441    0.684507   -1.632771
 H   -5.962074    0.913839    0.105980
 H   -0.383163   -2.721471    1.303486
 H   -6.343475   -1.646304   -0.424001
