54 
6hgj_ligand_ani.xyz
 C   -0.938190    1.156720   -0.343904
 C   -1.121756   -1.296956   -0.693883
 C   -2.147565   -0.296062    1.365197
 C    2.606252   -0.386311    0.340424
 C    3.378211    0.890702    0.013370
 C    4.591379    0.909353   -0.556357
 C    5.378715   -0.313907   -0.831634
 C    2.682291   -0.590011    1.866103
 C   -3.283516    1.848290   -0.349974
 C   -3.121328    0.376317   -0.801154
 C   -4.309330   -0.517155   -0.544309
 C   -5.710266    0.021455   -0.782721
 C   -1.846616    2.361272   -0.051431
 C   -1.821765   -0.076543   -0.105667
 C    0.440547    1.061172    0.312314
 C    1.143965   -0.220854   -0.199995
 C    0.269672   -1.482161   -0.064219
 O    0.141581   -1.802862    1.314415
 O   -2.127819    0.558500    2.223426
 O    6.447635   -0.276620   -1.410356
 C    4.779141   -1.605317   -0.305285
 C    3.257413   -1.587932   -0.385467
 C    2.719975    2.171779    0.475651
 C    1.287401    2.288153   -0.040093
 O   -4.187089   -1.666933   -0.163792
 O   -6.667635   -0.984600   -0.673770
 H   -0.752409    1.162858   -1.433078
 H   -0.999781   -1.164559   -1.777765
 H   -1.737316   -2.193204   -0.550228
 H   -2.442800   -1.335525    1.613735
 H    5.066436    1.851975   -0.818462
 H    2.111694    0.182257    2.390338
 H    3.722941   -0.513666    2.199600
 H    2.283092   -1.561824    2.162685
 H   -3.802011    2.439384   -1.112264
 H   -3.886563    1.890029    0.562582
 H   -2.950260    0.361824   -1.888333
 H   -5.746677    0.490054   -1.778708
 H   -5.893761    0.830696   -0.057058
 H   -1.764521    2.665785    0.993856
 H   -1.578411    3.221995   -0.675549
 H    0.313702    1.005521    1.400632
 H    1.267730   -0.062855   -1.284479
 H    0.764355   -2.313966   -0.588516
 H   -0.340093   -2.636385    1.379880
 H    5.108798   -1.735020    0.736073
 H    5.203612   -2.434601   -0.876852
 H    2.961466   -1.562127   -1.443368
 H    2.855357   -2.517656    0.036792
 H    3.316563    3.034902    0.159024
 H    2.713056    2.181852    1.574804
 H    0.818439    3.198365    0.355758
 H    1.315313    2.394282   -1.134524
 H   -6.189109   -1.772287   -0.367742
