31 
6hhr_ligand_xtb.xyz
 C    3.946853    0.942995   -0.148650
 C    3.934739   -0.408642    0.159452
 C    2.749145   -1.132619    0.160930
 C    0.288488   -1.214091   -0.061471
 C   -1.873565   -1.745256    0.070112
 C   -1.411402    0.646156    0.210653
 C   -2.145174    1.274306   -0.792617
 C   -2.649452    2.549216   -0.617907
 C   -2.415775    3.207773    0.576539
 C   -1.680479    2.598374    1.580394
 C    1.529666   -0.471739   -0.115272
 C    1.567592    0.884867   -0.443881
 C    2.750724    1.587016   -0.465697
 N    0.227675   -2.518310   -0.095898
 N   -1.083460   -2.843598   -0.018429
 N   -0.980965   -0.685820    0.039749
 C   -1.187375    1.318508    1.404979
 S   -3.497791   -1.688094    0.241272
 F   -2.328890    0.643594   -1.963502
 O    2.826478   -2.439267    0.441442
 O    5.133532    1.590273   -0.143404
 H    4.857532   -0.915578    0.385857
 H   -3.218227    3.002694   -1.413749
 H   -2.811356    4.200751    0.722942
 H   -1.501283    3.115073    2.510133
 H    0.656763    1.396949   -0.708507
 H    2.752349    2.634610   -0.731909
 H   -1.390681   -3.800856   -0.046764
 H   -0.625932    0.828184    2.185532
 H    1.947444   -2.854339    0.333968
 H    5.011294    2.514530   -0.393981
