34 
6hk6_ligand_dft.xyz
 C   -4.755967    2.171960    0.214646
 C    4.161616    0.899576    1.225989
 C   -3.426179    2.528488    0.031302
 C   -1.580669   -1.847486   -0.290615
 C    3.092533    0.070184    0.800533
 C   -0.184768   -2.421447   -0.558119
 C    0.974800   -1.567699   -0.112003
 C    1.278091   -1.469187    1.273686
 C    2.303094   -0.677874    1.714401
 C    2.797198   -0.018035   -0.586935
 C    1.725898   -0.848852   -1.010345
 N   -2.438802    1.646268   -0.123022
 N   -1.640078   -0.480218   -0.270234
 C   -5.064687    0.814455    0.236937
 C   -2.754959    0.349861   -0.098079
 C   -4.058556   -0.127426    0.079281
 O   -2.543709   -2.581537   -0.156995
 C    4.902241    1.608207    0.315315
 C    4.608331    1.520481   -1.065615
 C    3.580925    0.726408   -1.505786
 H   -5.520371    2.931572    0.335169
 H    4.383899    0.964589    2.287983
 H   -3.129915    3.574821    0.005621
 H   -0.127600   -2.609734   -1.637063
 H   -0.169863   -3.398986   -0.068096
 H    0.679787   -2.033085    1.984817
 H    2.526125   -0.611801    2.776111
 H    1.507479   -0.913298   -2.074723
 H   -0.774540    0.037412   -0.363545
 H   -6.089785    0.484420    0.377262
 H   -4.249638   -1.190979    0.090244
 H    5.718305    2.240958    0.650827
 H    5.201663    2.086785   -1.777122
 H    3.352631    0.657594   -2.566292
