34 
6hk6_ligand_xtb.xyz
 C   -4.804529    1.936937   -0.458727
 C    4.037963    1.524977    0.573101
 C   -3.836847    2.179442    0.501318
 C   -1.374080   -1.843272    0.020014
 C    3.010952    0.560877    0.637281
 C   -0.136883   -2.387787    0.731875
 C    0.981487   -1.385081    0.701122
 C    1.222683   -0.554671    1.814535
 C    2.208953    0.389992    1.784103
 C    2.776233   -0.271806   -0.488270
 C    1.750182   -1.234934   -0.424671
 N   -2.866119    1.329151    0.784513
 N   -1.755460   -0.627119    0.504317
 C   -4.744893    0.737369   -1.155390
 C   -2.814200    0.182439    0.113081
 C   -3.736560   -0.164762   -0.873648
 O   -1.940850   -2.441413   -0.863401
 C    4.798274    1.659428   -0.554338
 C    4.566418    0.836561   -1.668245
 C    3.578972   -0.107384   -1.636957
 H   -5.579358    2.660690   -0.655647
 H    4.212170    2.155395    1.433515
 H   -3.829859    3.095482    1.077538
 H    0.150677   -3.309306    0.224622
 H   -0.413100   -2.625657    1.761450
 H    0.628166   -0.683519    2.709512
 H    2.389123    1.019882    2.643526
 H    1.572608   -1.863423   -1.285972
 H   -1.183954   -0.196840    1.222054
 H   -5.479551    0.506363   -1.912764
 H   -3.651743   -1.105674   -1.389234
 H    5.583793    2.399570   -0.597637
 H    5.177317    0.957189   -2.550936
 H    3.396808   -0.743024   -2.491737
