15 
6hke_ligand_ani.xyz
 C   -1.206187   -0.557844   -0.228279
 O   -0.820828   -1.041793   -1.264815
 O   -2.200049   -1.090871    0.501770
 C   -0.683748    0.745690    0.368880
 O   -1.532084    1.805951   -0.022316
 C    0.698538    1.037170   -0.169393
 C    1.658768   -0.061441    0.204606
 O    2.843492    0.057158   -0.416375
 O    1.413225   -0.953764    0.983270
 H   -2.483215   -1.888660    0.024451
 H   -0.648747    0.631094    1.459955
 H   -2.404084    1.631864    0.355269
 H    1.058071    1.991231    0.231258
 H    0.664711    1.137016   -1.258512
 H    3.378983   -0.697434   -0.119585
