15 
6hke_ligand_xtb.xyz
 C   -1.141899   -0.705380   -0.042801
 O   -0.395760   -1.591869   -0.350622
 O   -2.459482   -0.879509    0.120533
 C   -0.721146    0.732735    0.243863
 O   -1.679297    1.673095   -0.160916
 C    0.613872    1.020662   -0.443041
 C    1.691598    0.144521    0.153315
 O    2.567014   -0.259641   -0.764631
 O    1.781210   -0.136821    1.317573
 H   -2.702789   -1.804560   -0.042719
 H   -0.562103    0.781963    1.338094
 H   -2.552792    1.353929    0.095765
 H    0.869734    2.067721   -0.272982
 H    0.548781    0.843791   -1.515404
 H    3.235134   -0.840115   -0.366261
