51 
6hkj_ligand_ani.xyz
 O    2.609770    0.486390   -2.554403
 C    3.645526    0.578832   -1.728906
 O    3.915877    1.589984   -1.105291
 C    4.409425   -0.723862   -1.628023
 C    3.526328   -1.866072   -1.095494
 C    3.100894   -1.687947    0.382814
 C    4.275893   -2.002565    1.284641
 O    4.485831   -3.323682    1.387022
 O    4.980635   -1.176980    1.812517
 N    2.631798   -0.361578    0.684535
 C    1.344008    0.003671    0.401484
 O    0.438188   -0.827689    0.298461
 N    1.154032    1.364287    0.286983
 C   -0.139088    1.900702   -0.068893
 C   -0.091507    2.572324   -1.434586
 O   -1.235703    3.184759   -1.743528
 O    0.848608    2.572131   -2.204990
 C   -0.744686    2.859836    0.976395
 C   -0.585710    2.429127    2.437277
 C   -1.057704    1.005021    2.772996
 C   -2.378621    0.653290    2.111950
 O   -3.391241    1.304607    2.307736
 N   -2.312957   -0.433988    1.272476
 C   -3.328304   -0.901975    0.431366
 C   -2.963752   -1.669709   -0.683750
 C   -3.948942   -2.170041   -1.515321
 C   -5.265767   -1.876244   -1.177208
 F   -6.244105   -2.348916   -1.959396
 N   -5.637051   -1.165828   -0.142397
 C   -4.684640   -0.677339    0.658807
 H    2.095368    1.324184   -2.505727
 H    4.767862   -0.986349   -2.629549
 H    5.282530   -0.553498   -0.992965
 H    4.055932   -2.819595   -1.187872
 H    2.621732   -1.927479   -1.707768
 H    2.290956   -2.390780    0.597836
 H    5.274573   -3.434406    1.943570
 H    3.328499    0.355102    0.837984
 H    1.975211    1.909857    0.046407
 H   -0.809831    1.042529   -0.180048
 H   -1.109751    3.577953   -2.623726
 H   -0.296847    3.854018    0.861597
 H   -1.807316    2.971353    0.736827
 H    0.465063    2.518996    2.735443
 H   -1.152828    3.141734    3.046798
 H   -0.302471    0.268585    2.488278
 H   -1.198842    0.922277    3.857553
 H   -1.382682   -0.777517    1.034093
 H   -1.910515   -1.860220   -0.884934
 H   -3.726727   -2.768531   -2.391885
 H   -5.009556   -0.086680    1.507988
