51 
6hkj_ligand_dft.xyz
 O    2.442652   -0.060351   -2.645185
 C    3.519227    0.199872   -1.909544
 O    3.813810    1.317213   -1.528856
 C    4.278688   -1.064598   -1.562654
 C    3.437344   -2.023849   -0.699181
 C    3.178508   -1.500614    0.734829
 C    4.471293   -1.491699    1.527899
 O    4.856088   -2.733003    1.858665
 O    5.112390   -0.503577    1.792517
 N    2.649248   -0.156553    0.746875
 C    1.355956    0.091453    0.394558
 O    0.479181   -0.775999    0.463209
 N    1.110813    1.385580    0.006368
 C   -0.216691    1.803921   -0.363261
 C   -0.296994    2.120993   -1.847881
 O   -1.489647    2.606151   -2.189583
 O    0.588215    1.963311   -2.664981
 C   -0.773170    2.965588    0.488172
 C   -0.581325    2.811044    2.001848
 C   -1.000928    1.460636    2.610280
 C   -2.344970    0.979431    2.084468
 O   -3.371954    1.617070    2.247109
 N   -2.268602   -0.203291    1.393211
 C   -3.279045   -0.820120    0.636914
 C   -2.889532   -1.777580   -0.308721
 C   -3.853097   -2.416549   -1.067072
 C   -5.176362   -2.052535   -0.838644
 F   -6.131591   -2.651709   -1.558257
 N   -5.573798   -1.160313    0.031636
 C   -4.642033   -0.544352    0.769967
 H    1.903945    0.761411   -2.718564
 H    4.534283   -1.574366   -2.497119
 H    5.206665   -0.774923   -1.062627
 H    3.934555   -2.996521   -0.635159
 H    2.465789   -2.181723   -1.175697
 H    2.465834   -2.166659    1.226930
 H    5.707045   -2.650118    2.319050
 H    3.338639    0.580727    0.668982
 H    1.896683    1.930769   -0.329715
 H   -0.862032    0.932242   -0.223729
 H   -1.475670    2.759949   -3.148617
 H   -0.303556    3.906512    0.176111
 H   -1.839647    3.056918    0.262521
 H    0.468802    2.981447    2.260573
 H   -1.162655    3.607080    2.477179
 H   -0.226928    0.707512    2.442036
 H   -1.099595    1.583244    3.693420
 H   -1.333654   -0.577185    1.243114
 H   -1.835073   -2.004143   -0.445098
 H   -3.603051   -3.163988   -1.810293
 H   -4.986780    0.196468    1.479370
