55 
6hkm_ligand_xtb.xyz
 C    4.374456    1.571822    0.163277
 C    5.542844    0.881846   -0.122029
 C    5.630279   -0.454916    0.222946
 C    7.803144   -0.783026   -0.653812
 C    3.415184   -0.405786    1.124702
 C   -0.246483    2.201875    0.654600
 C   -1.422188    0.214631   -0.332484
 C   -2.434261   -0.866171   -0.056411
 C   -2.841023   -3.008547    0.582333
 C   -4.660460   -1.728846    0.202354
 C   -6.631960   -0.390684   -0.180298
 C   -8.850034   -1.180444    0.069429
 O    2.055112    2.417252    2.139328
 C    2.073462    1.715447    1.145944
 C    3.303618    0.935700    0.772366
 O    6.758583   -1.262643   -0.015128
 F    8.707884   -1.747650   -0.784204
 F    7.535506   -0.336371   -1.896075
 F    8.418002    0.239186   -0.032453
 C    4.574838   -1.102525    0.850198
 N    1.020282    1.593775    0.311585
 C   -1.293353    1.118087    0.904089
 C   -0.048212   -0.370222   -0.664158
 C    0.967691    0.754944   -0.861681
 N   -1.964999   -2.043412    0.297286
 N   -4.140232   -2.919935    0.556844
 C   -6.062208   -1.585325    0.167935
 O   -7.956204   -0.138239   -0.243992
 C   -5.794677    0.726593   -0.520322
 O   -6.473344    1.852303   -0.848778
 C   -5.741712    3.003530   -1.190631
 C   -4.432861    0.597560   -0.494076
 C   -3.828353   -0.626023   -0.129603
 H    4.300554    2.617476   -0.092603
 H    6.356887    1.402064   -0.600448
 H    2.594475   -0.903516    1.618122
 H   -0.564123    2.853275   -0.168453
 H   -0.090225    2.806070    1.550174
 H   -1.762733    0.818185   -1.181111
 H   -2.416075   -3.963343    0.865668
 H   -8.732686   -2.026042   -0.615096
 H   -8.715577   -1.525850    1.098951
 H   -9.846069   -0.756428   -0.044222
 H    4.683454   -2.141735    1.113245
 H   -2.252071    1.578341    1.146598
 H   -0.985062    0.509025    1.755698
 H   -0.109295   -0.976286   -1.568082
 H    0.265971   -1.018648    0.152778
 H    1.957568    0.346670   -1.067463
 H    0.665924    1.376562   -1.715018
 H   -6.647311   -2.451016    0.428264
 H   -5.106039    3.336651   -0.363517
 H   -5.125356    2.838946   -2.080662
 H   -6.484481    3.769934   -1.404355
 H   -3.805146    1.433674   -0.753318
