53 
6hkn_ligand_xtb.xyz
 C   -2.730927    0.484545    0.511299
 C   -3.854844    1.271512    0.353906
 C   -5.068621    0.655321    0.079712
 C   -7.360038    1.080378   -0.328384
 C   -4.041933   -1.517164    0.185106
 C    1.856871   -1.181312    0.656192
 C   -0.311627   -0.524031   -1.127903
 C    3.141942    0.810532   -0.067663
 C    6.796312    1.300420    0.310268
 O   -1.650276   -2.710679    1.399395
 C   -1.596719   -1.756669    0.630530
 C   -2.794350   -0.897997    0.397265
 O   -6.155058    1.538560   -0.084110
 F   -7.470358    0.373295   -1.470233
 F   -8.198808    2.106809   -0.439970
 F   -7.862634    0.280528    0.631908
 C   -5.176874   -0.715141    0.001128
 N   -4.138155   -2.872739    0.083762
 N   -0.460878   -1.451520   -0.031775
 C    0.757913   -2.169611    0.273284
 C    2.084327   -0.175990   -0.484050
 C    0.758368    0.517369   -0.802703
 N    2.727766    1.961108    0.409131
 C    3.649807    2.839786    0.822655
 N    4.938732    2.687240    0.814532
 C    5.413072    1.515182    0.333966
 C    7.314692    0.114518   -0.168027
 O    8.662965   -0.005150   -0.149067
 C    9.259397   -1.193056   -0.615407
 C    6.438147   -0.885213   -0.642524
 C    5.084752   -0.691842   -0.629101
 C    4.526605    0.503899   -0.140572
 H   -1.790477    0.955834    0.751303
 H   -3.814060    2.343190    0.441427
 H    2.776977   -1.723425    0.879527
 H    1.556544   -0.636036    1.552864
 H   -1.266083   -0.048663   -1.349266
 H    0.000353   -1.094549   -2.014420
 H    7.453550    2.073151    0.672191
 H   -6.119513   -1.205781   -0.183475
 H   -3.394115   -3.391847    0.528996
 H   -5.058707   -3.273545    0.153834
 H    0.544083   -2.853480    1.096578
 H    1.066020   -2.753772   -0.603136
 H    2.424509   -0.717833   -1.373071
 H    0.460704    1.113150    0.059232
 H    0.884790    1.192723   -1.649050
 H    3.264040    3.776573    1.205671
 H    8.944471   -2.060684   -0.027136
 H    9.039021   -1.367174   -1.673318
 H   10.331363   -1.047862   -0.492668
 H    6.831326   -1.814804   -1.023388
 H    4.440478   -1.473946   -1.001199
