53 
6hkn_ligand_ani.xyz
 C   -0.838942  -35.964750  -11.742680
 C   -2.015777  -35.268700  -11.978359
 C   -2.879147  -35.075179  -10.908147
 C   -4.210447  -33.149478  -11.013214
 C   -1.390857  -36.206825   -9.391052
 C    2.259091  -40.116652  -10.490003
 C   -0.394861  -39.338558   -9.588817
 C    1.340663  -42.086524  -11.690749
 C    2.551592  -45.497771  -12.578392
 O    1.759262  -36.889578  -10.923896
 C    0.744156  -37.253274  -10.346713
 C   -0.535021  -36.480308  -10.483454
 O   -4.127957  -34.490472  -11.146993
 F   -3.928239  -32.746913   -9.764619
 F   -5.455246  -32.788055  -11.301017
 F   -3.376172  -32.503497  -11.840770
 C   -2.577908  -35.500378   -9.626381
 N   -1.056277  -36.547989   -8.097392
 N    0.729572  -38.396162   -9.554848
 C    2.017010  -39.071802   -9.399422
 C    1.105898  -41.132121  -10.544434
 C   -0.232187  -40.391049  -10.689508
 N    1.098729  -41.626555  -12.898772
 C    1.333155  -42.456529  -13.948412
 N    1.782516  -43.680735  -13.915861
 C    2.057203  -44.184041  -12.672495
 C    2.863984  -46.045374  -11.357313
 O    3.335444  -47.320846  -11.371739
 C    3.666722  -47.908811  -10.133898
 C    2.691265  -45.286005  -10.176431
 C    2.204504  -44.004130  -10.256832
 C    1.863490  -43.417553  -11.496911
 H   -0.126101  -36.128049  -12.544998
 H   -2.268669  -34.872430  -12.955376
 H    3.209436  -40.632298  -10.300896
 H    2.346882  -39.621752  -11.464481
 H   -1.326637  -38.787350   -9.723404
 H   -0.441611  -39.841535   -8.612154
 H    2.690044  -46.078205  -13.484398
 H   -3.255217  -35.269715   -8.807942
 H   -1.818766  -36.609994   -7.440066
 H   -0.330014  -37.239329   -7.984283
 H    2.020336  -39.559237   -8.414078
 H    2.795417  -38.307237   -9.411781
 H    1.079128  -41.683759   -9.595007
 H   -0.276544  -39.918249  -11.676816
 H   -1.063962  -41.103345  -10.633316
 H    1.112271  -42.036346  -14.926890
 H    4.018671  -48.915057  -10.364118
 H    4.463931  -47.351507   -9.624551
 H    2.793195  -47.970930   -9.471578
 H    2.935759  -45.703035   -9.206455
 H    2.082233  -43.434024   -9.339887
