55 
6hkx_ligand_ani.xyz
 C    2.931095   -0.325828   -0.346735
 C    5.666116   -0.112673   -0.976942
 C    5.219248   -0.953760    0.028596
 C   -2.083428   -0.391327   -1.750149
 C   -2.250787   -1.985927    2.803903
 C   -3.560583   -0.333343   -1.335390
 C   -4.391066    0.434001   -2.361405
 C   -1.614050   -1.507659    0.517866
 C   -1.988938   -2.812801    0.174637
 C   -2.498712   -3.687851    1.127274
 C    0.989517    2.791637    2.739573
 C   -1.433841    3.834541    1.527102
 C   -1.311914    1.860537    0.177176
 C   -1.081622   -0.595125   -0.597382
 C    1.475181   -0.494595   -0.026763
 C    3.395654    0.525163   -1.344717
 C    4.731148    0.642899   -1.679385
 C    3.876940   -1.072416    0.352078
 C   -2.637073   -3.273761    2.447618
 C   -1.734531   -1.110051    1.852176
 F    6.116388   -1.684182    0.716362
 F    2.486872    1.288766   -2.008918
 N   -0.607401    2.742448    1.035516
 N   -0.587439    0.711809   -0.084354
 N    0.788738    0.837577    0.103099
 N   -5.844841    0.491192   -1.982390
 O   -2.387700    2.152436   -0.307407
 O   -0.056757    2.024893    2.145592
 S    0.467148   -1.360408   -1.274071
 H    6.726010   -0.052328   -1.198246
 H   -1.933439   -1.195199   -2.480931
 H   -1.778732    0.533042   -2.249924
 H   -2.347366   -1.655676    3.834708
 H   -3.636143    0.163525   -0.363488
 H   -3.937579   -1.357644   -1.212255
 H   -4.310461   -0.025880   -3.346244
 H   -4.016961    1.455861   -2.429566
 H   -1.885761   -3.153450   -0.854124
 H   -2.788458   -4.691947    0.832822
 H    0.584859    3.545096    3.425655
 H    1.595101    3.283334    1.970212
 H    1.600692    2.086078    3.308005
 H   -0.801962    4.643654    1.898618
 H   -2.014677    4.204773    0.684989
 H   -2.105885    3.490508    2.321415
 H    1.384605   -1.065874    0.899585
 H    5.029738    1.328120   -2.465830
 H    3.584488   -1.751773    1.147155
 H   -3.037678   -3.953519    3.195482
 H   -1.428432   -0.113961    2.164431
 H    1.022389    1.182116    1.050868
 H    1.241425    1.437879   -0.640902
 H   -5.927920    0.959199   -1.064374
 H   -6.211523   -0.472306   -1.910416
 H   -6.387906    1.011868   -2.682880
