55 
6hky_ligand_ani.xyz
 C    2.701813   -0.554465   -0.375381
 C    5.141759   -1.740681    0.382623
 C    4.954341   -1.218969   -0.886677
 C   -2.382379    0.095042   -1.282866
 C   -1.729213   -2.546834    2.741299
 C   -3.044572   -1.182907   -1.796718
 C   -4.169440   -0.857438   -2.777222
 C   -1.804995   -0.835185    1.024090
 C   -2.962916   -0.325669    1.623934
 C   -3.517839   -0.946180    2.738151
 C    1.900478    4.129133   -0.182961
 C   -0.797138    4.665457    0.645118
 C   -1.124965    2.308094    0.366343
 C   -1.265561   -0.168910   -0.251617
 C    1.391406    0.029475   -0.819540
 C    2.910722   -1.073262    0.898889
 C    4.094125   -1.666375    1.296234
 C    3.761319   -0.631824   -1.277107
 C   -2.910977   -2.067760    3.294288
 C   -1.172680   -1.926190    1.627148
 F    5.962541   -1.284905   -1.775800
 F    1.894067   -0.972835    1.802778
 N   -0.183076    3.351655    0.537197
 N   -0.542702    1.086515    0.082219
 N    0.829528    0.962855    0.220295
 N   -4.867816   -2.092099   -3.274576
 O   -2.320802    2.477432    0.512948
 O    0.762921    3.347327   -0.536383
 S    0.049815   -1.170387   -1.098846
 H    6.092169   -2.192416    0.644686
 H   -1.921402    0.644377   -2.112136
 H   -3.126379    0.758763   -0.835253
 H   -1.230952   -3.408280    3.176610
 H   -2.284609   -1.811110   -2.278703
 H   -3.438808   -1.747660   -0.940972
 H   -4.910962   -0.219570   -2.296127
 H   -3.772013   -0.320647   -3.638527
 H   -3.412452    0.588381    1.244009
 H   -4.432238   -0.549272    3.172088
 H    2.717612    3.794346   -0.826309
 H    1.719684    5.194915   -0.365129
 H    2.161403    3.977307    0.870834
 H   -1.120995    5.030376   -0.335978
 H   -1.655841    4.568114    1.305929
 H   -0.091451    5.369336    1.090445
 H    1.543488    0.561745   -1.760801
 H    4.194314   -2.047576    2.307244
 H    3.672617   -0.245166   -2.288242
 H   -3.348706   -2.554311    4.162267
 H   -0.231190   -2.299466    1.237230
 H    1.092500    0.571680    1.159852
 H    1.314030    1.860206    0.095863
 H   -5.273129   -2.593605   -2.467353
 H   -5.615080   -1.851097   -3.937800
 H   -4.176313   -2.701375   -3.741599
