39 
6hly_ligand_xtb.xyz
 O    3.056256   -1.584524   -1.178198
 C    3.029120   -0.544306   -0.549093
 C    3.858280    0.693756   -0.812280
 C    3.579901    1.617151    0.373572
 C    2.307614    1.047599    1.021726
 C    1.012717    1.768482    0.632851
 O    0.838688    1.824180   -0.673797
 N    2.225584   -0.304125    0.508232
 C    1.145529   -1.187259    0.891658
 C    0.211283   -1.507766   -0.300554
 O    0.576028   -2.722896   -0.902891
 C   -1.256072   -1.667173    0.132215
 O   -1.348142   -2.438372    1.313611
 C   -1.976666   -0.331893    0.400222
 O   -3.157400   -0.582349    1.131531
 C   -2.310551    0.416243   -0.922487
 O   -1.833042    1.744083   -0.893656
 C   -3.825207    0.463006   -1.190906
 O   -4.444468    1.334751   -0.283259
 O    0.210882    2.152661    1.443875
 H    4.910226    0.439131   -0.926855
 H    3.509584    1.122643   -1.753092
 H    4.399482    1.578749    1.090507
 H    3.438829    2.651838    0.068078
 H    2.362044    1.039651    2.116244
 H   -0.100647    2.059350   -0.883485
 H    1.567245   -2.131465    1.254254
 H    0.589960   -0.720259    1.704901
 H    0.276483   -0.684561   -1.028693
 H    1.509626   -2.633336   -1.179812
 H   -1.779328   -2.190449   -0.683768
 H   -0.886987   -3.267419    1.143338
 H   -1.324069    0.318231    1.003248
 H   -2.959946   -1.322614    1.722085
 H   -1.803967   -0.076683   -1.757185
 H   -2.509128    2.263486   -0.425739
 H   -4.248509   -0.545174   -1.144361
 H   -3.994920    0.882904   -2.185172
 H   -4.381181    0.917556    0.588621
