39 
6hlz_ligand_ani.xyz
 O    3.186666    1.743254    0.934538
 C    3.118295    0.638629    0.407511
 C    3.948827   -0.582291    0.760761
 C    3.616534   -1.594808   -0.343464
 C    2.258302   -1.127445   -0.902450
 C    1.070827   -1.806312   -0.217084
 O    0.931207   -1.833875    0.986988
 N    2.247798    0.295444   -0.576932
 C    1.116527    1.137462   -0.919675
 C    0.208992    1.454057    0.292480
 O    0.565073    2.710848    0.832100
 C   -1.267782    1.581449   -0.069532
 O   -1.415327    2.515153   -1.127499
 C   -1.960139    0.297800   -0.530512
 O   -3.216438    0.642420   -1.098483
 C   -2.184969   -0.734057    0.585327
 O   -2.325356   -2.030455    0.012116
 C   -3.437775   -0.439354    1.419772
 O   -4.596705   -0.792014    0.687469
 O    0.198422   -2.305072   -1.095402
 H    5.007786   -0.324380    0.828759
 H    3.622466   -0.930508    1.745128
 H    3.578936   -2.628091    0.012278
 H    4.358181   -1.543550   -1.145273
 H    2.163536   -1.281178   -1.981578
 H    1.474331    2.087604   -1.331433
 H    0.572550    0.620024   -1.714300
 H    0.331965    0.660604    1.046567
 H    1.520767    2.665098    1.032083
 H   -1.788784    1.960661    0.823842
 H   -0.980688    3.325993   -0.826649
 H   -1.354175   -0.201180   -1.301653
 H   -3.089273    1.491600   -1.549923
 H   -1.303291   -0.782025    1.233698
 H   -3.278795   -2.141853   -0.145033
 H   -3.428806   -1.075964    2.309101
 H   -3.473237    0.610615    1.745083
 H   -4.586867   -0.201851   -0.085954
 H   -0.627361   -2.532579   -0.609635
