85 
6hm1_ligand_dft.xyz
 C   -3.434390   -0.402061   -0.080734
 C   -3.405575   -0.552258    1.443742
 C   -4.593224   -1.390309    1.912620
 C   -5.912608   -0.913024    1.301962
 C   -5.763269   -0.744713   -0.217429
 C   -6.980991   -0.100376   -0.862844
 C   -1.101466   -0.462564    2.318109
 C    0.074217   -1.283489    2.789901
 N   -2.184881   -1.169144    1.905752
 O   -4.343556   -2.725446    1.514308
 O   -6.864367   -1.899044    1.639570
 O   -4.682778    0.120221   -0.492914
 O   -8.099000   -0.940071   -0.601743
 O   -1.068976    0.764787    2.287858
 C    0.547636    0.788420   -1.165083
 C   -0.250237    2.101396   -1.267146
 C   -1.519301    1.879843   -2.122470
 C   -2.111040    0.497593   -1.833749
 C   -1.066900   -0.598439   -2.133759
 C   -1.316501   -1.324547   -3.446031
 C    0.250023    3.460344    0.711771
 C   -0.032679    3.654402    2.183647
 N   -0.574115    2.589835    0.063747
 O   -2.457134    2.906322   -1.968792
 O   -2.459024    0.498967   -0.447688
 O    0.237796   -0.050066   -2.257999
 O   -0.297075   -2.253253   -3.710090
 O    1.180274    4.043607    0.157799
 C    4.739793    0.164677    0.917140
 C    4.038835   -1.221189    0.796474
 C    2.914588   -1.013063   -0.239287
 C    2.645471    0.483575   -0.137277
 C    4.049292    1.081778   -0.096421
 C    4.091383    2.575596    0.203606
 C    6.145353   -1.438199    0.251329
 C    7.500646   -3.308885   -0.392976
 C    8.556292   -1.124461    0.055635
 N    5.078572   -2.142679    0.373676
 N    7.347052   -1.879804   -0.209381
 O    1.742269   -1.769402    0.002003
 O    1.905325    1.053426   -1.190655
 O    3.416829    2.882847    1.404807
 O    6.104880   -0.118922    0.574663
 H   -3.278116   -1.385218   -0.558359
 H   -3.462999    0.454762    1.867727
 H   -4.668023   -1.330564    3.008457
 H   -6.173025    0.066393    1.734561
 H   -5.596462   -1.738020   -0.662192
 H   -6.805951    0.008254   -1.940213
 H   -7.121652    0.900093   -0.430965
 H    0.654409   -0.686255    3.495198
 H   -0.231837   -2.219722    3.266426
 H    0.709214   -1.518427    1.926210
 H   -2.180123   -2.178526    1.947065
 H   -5.196538   -3.179560    1.597733
 H   -7.622804   -1.770758    1.045042
 H   -8.902014   -0.490324   -0.885436
 H    0.271620    0.269592   -0.235440
 H    0.379011    2.858260   -1.737431
 H   -1.216096    1.886512   -3.173510
 H   -3.022177    0.364510   -2.428254
 H   -1.059974   -1.325496   -1.306427
 H   -2.260335   -1.876697   -3.387819
 H   -1.409428   -0.579828   -4.254649
 H   -1.064845    3.424213    2.452242
 H    0.213640    4.683279    2.452177
 H    0.616380    2.977922    2.748744
 H   -1.103356    1.956785    0.663208
 H   -2.519210    3.076487   -1.018135
 H    0.531337   -1.781687   -3.541988
 H    4.725981    0.593046    1.921740
 H    3.583675   -1.550428    1.739058
 H    3.301030   -1.229459   -1.244821
 H    2.143004    0.695365    0.819745
 H    4.519106    0.915168   -1.075845
 H    3.640962    3.109809   -0.640463
 H    5.141815    2.889773    0.282817
 H    8.282093   -3.489506   -1.137441
 H    6.558201   -3.727658   -0.745433
 H    7.778844   -3.814586    0.543132
 H    8.991797   -1.371748    1.035201
 H    9.293770   -1.358085   -0.718288
 H    8.343529   -0.056898    0.025114
 H    1.954828   -2.694247   -0.173128
 H    2.678526    3.463956    1.154693
