39 
6hm2_ligand_xtb.xyz
 O    3.055907   -1.583223   -1.179556
 C    3.028878   -0.543709   -0.549230
 C    3.857623    0.694873   -0.811335
 C    3.581156    1.615421    0.377037
 C    2.307240    1.046688    1.022624
 C    1.013873    1.768813    0.630760
 O    0.839446    1.817192   -0.676194
 N    2.225862   -0.304958    0.508876
 C    1.145493   -1.187932    0.891709
 C    0.210861   -1.507718   -0.300468
 O    0.575631   -2.722464   -0.903586
 C   -1.256306   -1.667509    0.132948
 O   -1.347740   -2.437671    1.315162
 C   -1.977635   -0.332470    0.400037
 O   -3.157870   -0.582771    1.131957
 C   -2.312492    0.414788   -0.923041
 O   -1.832090    1.741646   -0.896616
 C   -3.827458    0.464528   -1.188832
 O   -4.443595    1.337625   -0.280325
 O    0.213709    2.160356    1.439720
 H    4.909488    0.440747   -0.928306
 H    3.507334    1.125833   -1.750610
 H    4.400228    1.572291    1.094266
 H    3.443092    2.651539    0.075042
 H    2.359440    1.039046    2.117237
 H   -0.099299    2.053584   -0.887092
 H    1.566718   -2.132564    1.253763
 H    0.590024   -0.721217    1.705218
 H    0.275612   -0.684218   -1.028197
 H    1.509016   -2.632342   -1.181172
 H   -1.779717   -2.191834   -0.682264
 H   -0.886746   -3.266850    1.145429
 H   -1.325062    0.318549    1.002189
 H   -2.960043   -1.322643    1.722844
 H   -1.808467   -0.080084   -1.758116
 H   -2.505658    2.262928   -0.427069
 H   -4.252760   -0.542790   -1.141556
 H   -3.998016    0.884554   -2.182884
 H   -4.380793    0.920032    0.591382
