46 
6hmg_ligand_ani.xyz
 C   -3.636811    0.832094   -0.730761
 C   -2.382971   -1.353737   -0.067858
 C   -1.286420    0.918030    0.108238
 C   -2.536473    1.648223   -0.068770
 O   -2.357877   -2.453811   -0.969181
 C   -3.741042   -0.594411   -0.108991
 C   -4.351839   -0.526166    1.287800
 O   -3.436880    0.142868    2.138287
 C   -1.201984   -0.466365   -0.482473
 O    0.026651   -1.084333   -0.112834
 N   -1.329684    2.033542   -0.854059
 C    1.063194   -0.817843   -1.039410
 C    2.283274   -1.648997   -0.639618
 C    2.966756   -1.040694    0.573599
 C    3.281461    0.421317    0.315599
 C    1.978757    1.147489   -0.013355
 C    2.195236    2.618221   -0.322865
 O    1.924807   -2.991684   -0.396018
 O    4.179069   -1.710042    0.847968
 O    3.847807    1.017446    1.461946
 O    1.351820    0.546633   -1.158264
 O    0.940486    3.310094   -0.249203
 H   -4.606519    1.330397   -0.627386
 H   -3.453695    0.738590   -1.811039
 H   -2.197052   -1.688217    0.961012
 H   -0.713668    1.077644    1.008755
 H   -2.837470    2.383062    0.659775
 H   -2.740059   -3.216368   -0.520230
 H   -4.415427   -1.182366   -0.741002
 H   -5.316050    0.005454    1.245702
 H   -4.552108   -1.546520    1.651289
 H   -3.806385    0.153969    3.029275
 H   -1.247401   -0.402101   -1.580183
 H   -1.338055    1.776182   -1.847556
 H   -0.664978    2.793844   -0.635166
 H    0.716811   -1.146318   -2.031014
 H    2.998067   -1.655889   -1.470926
 H    2.287501   -1.105130    1.442187
 H    3.964705    0.492784   -0.549284
 H    1.328400    1.068383    0.865509
 H    2.905407    3.031634    0.403596
 H    2.616937    2.704647   -1.333311
 H    1.092679   -2.953263    0.099846
 H    3.963924   -2.653548    0.881743
 H    4.597161    0.460998    1.717042
 H    1.131180    4.257025   -0.208638
