46 
6hmg_ligand_dft.xyz
 C   -3.593799    0.716821   -0.879430
 C   -2.347834   -1.370985    0.108209
 C   -1.277197    0.867217    0.040519
 C   -2.533028    1.576457   -0.218135
 O   -2.286317   -2.610932   -0.555488
 C   -3.713658   -0.638459   -0.129007
 C   -4.464691   -0.463001    1.185870
 O   -3.710138    0.424541    1.992711
 C   -1.179765   -0.560731   -0.449074
 O    0.059639   -1.119804   -0.100611
 N   -1.295536    1.916487   -1.003865
 C    1.076874   -0.809744   -1.034081
 C    2.312296   -1.624572   -0.649166
 C    3.012401   -1.015193    0.562489
 C    3.300597    0.458548    0.309618
 C    1.974255    1.162298    0.027560
 C    2.149174    2.638478   -0.254017
 O    1.996393   -2.978358   -0.445565
 O    4.245593   -1.639712    0.812585
 O    3.874262    1.073251    1.434283
 O    1.325103    0.572325   -1.104117
 O    0.880992    3.306540   -0.147443
 H   -4.557443    1.231398   -0.880781
 H   -3.340545    0.533910   -1.929920
 H   -2.187110   -1.490757    1.188546
 H   -0.682378    1.134185    0.904743
 H   -2.835562    2.370000    0.452413
 H   -2.766757   -3.271962   -0.043803
 H   -4.307780   -1.303631   -0.764153
 H   -5.471246   -0.065546    0.992695
 H   -4.579982   -1.441757    1.674509
 H   -4.137861    0.508039    2.853019
 H   -1.286274   -0.588643   -1.545914
 H   -1.209234    1.599260   -1.966770
 H   -0.671110    2.714493   -0.778010
 H    0.734029   -1.085585   -2.038499
 H    3.010012   -1.590221   -1.492347
 H    2.349800   -1.090199    1.441440
 H    3.956932    0.543192   -0.571869
 H    1.355745    1.053835    0.928450
 H    2.841662    3.040555    0.490538
 H    2.569985    2.775028   -1.257206
 H    1.168136   -3.008125    0.055202
 H    4.087127   -2.592361    0.865007
 H    4.606382    0.508542    1.720222
 H    1.044247    4.255332   -0.089437
