24 
6hop_ligand_ani.xyz
 C  -23.186882   17.744361  -11.137559
 C  -23.292836   16.607230  -10.350516
 C  -23.101850   15.352441  -10.920001
 C  -22.880019   17.611892  -12.504945
 C  -22.688508   16.360156  -13.067489
 C  -22.811132   15.209074  -12.276206
 C  -22.490749   18.767555  -14.544087
 C  -22.638993   13.853726  -12.830633
 C  -22.671729   13.525077  -14.126802
 C  -22.416970   12.170034  -14.694459
 O  -22.787193   11.865603  -15.797684
 O  -21.753312   11.274953  -13.927078
 O  -23.373006   18.972750  -10.598874
 O  -22.802554   18.808782  -13.166478
 H  -23.524431   16.717296   -9.295343
 H  -23.190666   14.468270  -10.293507
 H  -22.416398   16.267782  -14.115182
 H  -21.490008   18.350423  -14.710518
 H  -23.227511   18.173299  -15.098440
 H  -22.515767   19.798821  -14.897897
 H  -22.517556   13.074447  -12.074561
 H  -22.980689   14.245728  -14.877760
 H  -21.415306   11.698308  -13.126701
 H  -23.252034   19.613493  -11.317479
