24 
6hoq_ligand_ani.xyz
 C    2.279632    3.286176    5.215547
 C    3.361272    2.893455    4.440929
 C    3.157643    2.489121    3.126324
 C    0.987857    3.269288    4.656913
 C    0.787953    2.865727    3.346534
 C    1.881107    2.468208    2.561529
 C   -1.317380    3.692972    5.047234
 C    1.745384    2.028734    1.166119
 C    0.612767    1.941865    0.459326
 C    0.563353    1.488969   -0.944109
 O   -0.453090    1.405823   -1.594416
 O    1.771979    1.166196   -1.459424
 O    2.460644    3.682630    6.497360
 O    0.011789    3.679720    5.526421
 H    4.355091    2.908840    4.878030
 H    4.013195    2.183297    2.528460
 H   -0.214603    2.857703    2.929377
 H   -1.939857    4.043106    5.871367
 H   -1.423491    4.375089    4.194869
 H   -1.639838    2.688103    4.748299
 H    2.683996    1.751826    0.686262
 H   -0.357720    2.200284    0.871204
 H    1.593569    0.890175   -2.372555
 H    1.583744    3.909691    6.845397
