81 
6hrp_ligand_xtb.xyz
 C   -2.285312    3.915091   -0.704470
 C   -2.882499    2.646895   -0.273283
 C   -2.093855    1.655097    0.234250
 C   -0.698924    1.892968    0.326859
 C   -5.153821    1.669413   -0.149987
 C   -6.513457    1.921696   -0.401171
 C   -7.431853    0.947581   -0.086650
 C   -6.988530   -0.258468    0.465339
 C   -5.624977   -0.396162    0.689603
 C   -7.932122   -1.319358    0.921524
 O   -2.954006    4.832468   -1.171352
 C    0.196168    0.871309    0.899145
 C    5.939938   -0.677293    0.693536
 C    6.002269   -1.218490   -0.604893
 C    4.753052   -1.449823   -1.264833
 C    7.156523   -0.438926    1.336990
 C    8.368104   -0.714125    0.736796
 C    8.427809   -1.251332   -0.550205
 C    7.231287   -1.498848   -1.202106
 C    9.744046   -1.564639   -1.241665
 N   -0.165212    3.020884   -0.053108
 N   -0.930340    3.987690   -0.552805
 N   -4.235468    2.633389   -0.457146
 N   -4.732007    0.525489    0.382767
 O   -7.943531   -1.697261    2.078772
 N   -8.802480   -1.793304   -0.006069
 C   -9.753220   -2.822500    0.369624
 C   -9.365198   -4.147050   -0.291561
 O   -9.268694   -4.004160   -1.693069
 C   -8.313137   -3.032204   -2.037615
 C   -8.665428   -1.661458   -1.438681
 C   -0.221391    5.186799   -0.943929
 C   -0.223540    0.215768    2.054258
 C    0.588492   -0.714937    2.671272
 C    1.830333   -1.002238    2.137690
 C    2.249714   -0.362640    0.979470
 C    1.442537    0.573756    0.332888
 N    3.553323   -0.664007    0.488396
 C    4.644430   -0.382560    1.315845
 N    3.614596   -1.173200   -0.738577
 C    1.907587    1.276983   -0.923013
 O    2.509287    2.517429   -0.648609
 O    4.477898    0.060810    2.429962
 F    7.183321    0.070015    2.574076
 C   10.960109   -1.216871   -0.380025
 C    9.791733   -3.065732   -1.560775
 C    9.827056   -0.751898   -2.541602
 H   -2.522545    0.714808    0.534042
 H   -6.819783    2.867384   -0.820860
 H   -8.487218    1.115372   -0.246591
 H   -5.229572   -1.299324    1.134357
 H    4.721211   -1.868111   -2.259339
 H    9.258953   -0.497062    1.301422
 H    7.220505   -1.915023   -2.197608
 H   -4.571602    3.510277   -0.852588
 H  -10.749095   -2.518392    0.030672
 H   -9.739784   -2.914371    1.456146
 H  -10.126509   -4.907228   -0.113592
 H   -8.402820   -4.490102    0.117323
 H   -8.302722   -2.983016   -3.127621
 H   -7.317459   -3.335903   -1.676528
 H   -7.885769   -0.942193   -1.686527
 H   -9.621393   -1.322201   -1.854486
 H    0.173926    5.692175   -0.062294
 H    0.604039    4.923150   -1.604114
 H   -0.927649    5.837166   -1.456184
 H   -1.183307    0.461637    2.483022
 H    0.259506   -1.209865    3.571782
 H    2.483432   -1.712886    2.618871
 H    1.049564    1.405234   -1.599926
 H    2.658633    0.679490   -1.441722
 H    1.835753    3.056848   -0.203049
 H   10.983692   -0.155354   -0.145414
 H   10.963747   -1.789243    0.544512
 H   11.869284   -1.458814   -0.926188
 H    9.708311   -3.648627   -0.646045
 H    8.983840   -3.357098   -2.226042
 H   10.735022   -3.312947   -2.042158
 H    9.024825   -1.011902   -3.226277
 H    9.760445    0.312150   -2.325543
 H   10.774590   -0.943857   -3.039714
