37 
6hrq_ligand_ani.xyz
 C   42.757316   37.708965   91.440773
 C   41.379460   37.559775   91.562559
 C   40.625293   38.546524   92.191361
 C   42.630704   39.832435   92.579226
 C   44.251573   37.534940   87.676731
 C   44.107583   34.083121   85.177499
 C   45.125380   34.224686   86.120927
 C   45.179407   35.358581   86.923496
 C   44.202096   36.345959   86.818562
 C   43.172507   36.193025   85.884176
 C   43.133482   35.071030   85.065491
 C   46.198776   33.207720   86.298239
 C   43.390021   38.847859   91.944329
 C   41.252785   39.680183   92.698370
 N   44.700363   39.101798   89.087818
 N   43.538732   39.415031   88.501946
 N   43.263531   38.486453   87.648746
 C   45.180127   37.929326   88.611433
 N   45.928549   31.958478   85.805046
 O   46.851158   30.979311   86.160060
 O   47.281481   33.437805   86.825467
 S   45.159402   39.041205   91.793428
 C   45.218929   39.893302   90.178028
 H   43.353134   36.949089   90.940253
 H   40.893484   36.671510   91.165885
 H   39.548324   38.432073   92.287431
 H   43.122051   40.718241   92.975508
 H   44.090155   33.220946   84.516173
 H   46.003559   35.448377   87.625940
 H   42.413137   36.966232   85.810462
 H   42.335039   34.961021   84.336456
 H   40.667887   40.452491   93.191189
 H   46.095817   37.507536   89.001271
 H   44.989791   31.593484   85.911483
 H   47.550921   31.510551   86.595616
 H   46.270694   40.118857   89.988653
 H   44.640348   40.816079   90.222968
