25 
6hrx_ligand_dft.xyz
 C  -25.639710  -13.929776   12.409925
 C  -21.307188  -16.716232   12.176420
 C  -22.036658  -16.479246   13.346452
 C  -20.192140  -16.768713   14.552292
 C  -19.950184  -17.024842   12.282830
 N  -22.220762  -16.594235   11.142690
 N  -21.489747  -16.501409   14.569274
 C  -27.407589  -15.459557   11.418527
 N  -19.402638  -17.035214   13.497785
 C  -23.415951  -16.278248   11.738216
 S  -24.838720  -16.027722   10.746693
 C  -26.003438  -15.354682   12.009419
 N  -19.137021  -17.265544   11.196135
 N  -23.357423  -16.217101   13.044865
 H  -24.637347  -13.889926   12.842083
 H  -25.689586  -13.254574   11.549218
 H  -26.348377  -13.575986   13.167735
 H  -19.691338  -16.787494   15.517221
 H  -22.025743  -16.528440   10.156389
 H  -28.131704  -15.088268   12.150979
 H  -27.506494  -14.848953   10.513820
 H  -27.668657  -16.492767   11.172047
 H  -25.905123  -16.016083   12.873719
 H  -18.230322  -17.626648   11.462955
 H  -19.553139  -17.762338   10.421311
