21 
6hrz_ligand_ani.xyz
 C   10.667636  -22.704775  -17.548667
 C    8.663629  -21.564510  -18.354736
 C    7.894413  -22.528860  -17.719055
 C    8.499937  -23.571349  -17.005109
 C    9.880030  -23.667267  -16.914661
 N   13.817115  -21.340473  -18.417511
 N   16.067725  -21.573325  -18.504848
 C   10.048273  -21.666225  -18.260443
 N   14.794990  -23.003364  -17.076779
 C   12.506517  -21.671940  -18.213200
 C   14.980442  -22.012297  -17.998141
 S   11.280253  -20.622075  -18.941529
 N   12.064470  -22.678928  -17.539078
 H    8.196113  -20.755307  -18.908922
 H    6.810644  -22.474525  -17.775813
 H    7.880528  -24.317312  -16.513872
 H   10.359345  -24.471706  -16.363517
 H   14.044166  -20.584635  -19.048150
 H   16.872607  -22.082555  -18.145757
 H   13.859503  -23.374422  -16.955286
 H   15.567663  -23.635151  -16.939924
