34 
6hsz_ligand_ani.xyz
 O   44.942052   37.702529   86.781308
 C   44.361569   37.047701   87.630110
 C   44.046423   37.614091   88.982041
 C   44.810308   38.694987   89.422002
 C   44.573214   39.257121   90.670773
 C   43.557988   38.752562   91.480278
 C   42.776885   37.688142   91.035212
 C   43.020639   37.119198   89.790127
 N   43.969455   35.739103   87.428394
 C   44.391398   34.973273   86.301783
 C   43.920531   35.263730   85.008707
 C   42.935204   36.370763   84.747037
 C   45.261555   33.909459   86.510758
 C   45.700411   33.127589   85.446973
 C   45.272594   33.424613   84.155296
 C   44.389227   34.476102   83.953805
 C   46.634704   32.011966   85.756060
 O   47.288364   31.932412   86.790795
 N   46.767260   31.049939   84.789297
 O   47.487026   29.925292   85.180526
 H   45.587623   39.081515   88.768215
 H   45.178220   40.092996   91.012773
 H   43.371100   39.192999   92.456137
 H   41.980862   37.293253   91.661960
 H   42.386995   36.307394   89.437023
 H   43.787756   35.194723   88.258695
 H   42.108639   36.334023   85.463622
 H   43.412594   37.349248   84.851836
 H   42.528201   36.287442   83.735287
 H   45.638021   33.679142   87.505190
 H   45.641739   32.853708   83.307345
 H   44.038855   34.692153   82.946169
 H   45.942921   30.760539   84.277132
 H   47.825666   30.198293   86.059334
