45 
6hth_ligand_ani.xyz
 C   43.502640   37.141703   89.251349
 C   44.381178   37.549235   88.244546
 C   44.577007   36.798201   86.966272
 C   44.244326   34.667880   85.820437
 C   44.986429   33.496530   85.911943
 O   45.136894   37.288374   86.006368
 N   44.086647   35.504765   86.955345
 C   45.172613   32.681684   84.797707
 C   45.983243   31.449956   84.981089
 N   45.863726   30.496539   84.003531
 O   46.473246   29.280808   84.297562
 O   46.747712   31.267461   85.922440
 C   44.628633   33.053009   83.567835
 C   43.871281   34.210837   83.472736
 C   43.654569   35.009417   84.592661
 O   42.885745   36.131452   84.457074
 C   41.626719   36.067748   85.112585
 C   45.109592   38.727907   88.417720
 C   44.988582   39.463385   89.585024
 C   44.115629   39.058572   90.601043
 C   43.368086   37.890652   90.409706
 C   43.980268   39.851612   91.848589
 C   42.720467   40.107180   92.398695
 C   42.590068   40.856101   93.562603
 C   43.721481   41.349707   94.206625
 C   44.982072   41.095250   93.673127
 C   45.108258   40.359589   92.500262
 H   42.887973   36.253156   89.130477
 H   45.453846   33.206563   86.848939
 H   43.997412   35.028768   87.840355
 H   44.948441   30.326465   83.604614
 H   46.953740   29.491173   85.126057
 H   44.813815   32.453154   82.680813
 H   43.424945   34.513033   82.529998
 H   41.179677   37.059288   85.009674
 H   40.975312   35.323276   84.635723
 H   41.744843   35.826947   86.174079
 H   45.775242   39.048424   87.622309
 H   45.560293   40.380582   89.705759
 H   42.692673   37.550655   91.191465
 H   41.833843   39.729558   91.893493
 H   41.601472   41.047580   93.971698
 H   43.621261   41.929964   95.119972
 H   45.871566   41.477496   94.167107
 H   46.095535   40.156365   92.090595
