34 
6hti_ligand_dft.xyz
 C   -3.608124   -0.224642   -0.093269
 C   -3.962418    1.051186   -0.534366
 C   -3.031392    2.079264   -0.493442
 C   -1.745922    1.841298   -0.016516
 C   -1.360962    0.552893    0.379375
 C    1.050276    0.362076    0.033228
 C    2.344506   -0.029403    0.662408
 N   -0.060979    0.281649    0.857083
 C    2.544407   -0.037677    2.039509
 N   -5.891330   -1.050379   -0.111813
 C   -4.559462   -1.369118   -0.079165
 O   -4.214710   -2.545875   -0.064078
 C    4.809778   -0.832713    1.777996
 C    4.649306   -0.816264    0.385236
 C    5.599512   -1.179542   -0.633165
 C    5.094979   -1.026309   -1.877966
 C    3.419573   -0.394891   -0.165464
 C   -2.306119   -0.466865    0.335678
 C    3.767018   -0.434019    2.594158
 O   -6.752668   -2.125481    0.076967
 O    0.971701    0.718239   -1.127273
 S    3.462349   -0.424065   -1.907435
Cl   -0.646110    3.176281    0.113526
 H   -4.952457    1.243025   -0.936011
 H   -3.296463    3.076677   -0.825323
 H   -0.001362   -0.353468    1.639447
 H    1.753811    0.303783    2.701215
 H   -6.216412   -0.252731    0.418606
 H    5.755928   -1.149789    2.207164
 H    6.602035   -1.531400   -0.419819
 H    5.601865   -1.219105   -2.814758
 H   -2.028751   -1.476003    0.624784
 H    3.892832   -0.423478    3.671995
 H   -6.122893   -2.874860    0.134489
