26 
6htn_ligand_ani.xyz
 C   -1.135498   -0.157373    0.664647
 C   -0.064400   -1.236856    0.566110
 C    0.864503   -0.940386   -0.606800
 C    1.447054    0.457333   -0.476415
 C    0.311746    1.468266   -0.322873
 C    0.814130    2.867868   -0.042481
 O   -1.972403   -0.298593   -0.452822
 O   -0.626723   -2.527184    0.429299
 O    1.938758   -1.861527   -0.603393
 O    2.293443    0.522572    0.647412
 O   -0.560152    1.116044    0.757713
 C   -3.089187    0.572657   -0.425798
 H   -1.736033   -0.292421    1.576748
 H    0.526442   -1.238903    1.485369
 H    0.295276   -1.012013   -1.548309
 H    2.006904    0.699638   -1.397978
 H   -0.261275    1.457897   -1.264903
 H    1.372930    2.883769    0.896926
 H    1.476132    3.209319   -0.846765
 H   -0.032444    3.555522    0.032108
 H   -1.336087   -2.434317   -0.224617
 H    1.545148   -2.723367   -0.397717
 H    2.833995   -0.281400    0.609928
 H   -3.705082    0.396308    0.468168
 H   -2.775099    1.623557   -0.437411
 H   -3.684280    0.356855   -1.315547
