86 
6htp_ligand_xtb.xyz
 C    1.676911   -2.608802   -3.871655
 C    2.340451   -2.402027   -1.717509
 C    2.922043   -1.545937   -0.652910
 C    2.032316    1.189364    0.460764
 C   -0.715142    0.021037   -0.490093
 C   -2.520675   -1.618749   -0.360707
 C   -1.472008   -2.199687    1.797016
 C    0.957047   -1.914150    3.130028
 C    2.292304   -1.712681    3.789376
 C   -0.465751   -3.141766    1.632306
 C   -5.045767   -1.051431   -0.600344
 C   -6.593856    1.255974    0.146493
 C   -1.252583   -1.115699    2.639023
 C   -0.047280   -0.970425    3.297283
 N    3.143062   -0.900077    2.881978
 C    0.738962   -3.001976    2.296048
 C   -2.750561   -2.277334    1.013080
 C   -3.773633   -1.573459   -1.250870
 S   -4.893928    0.694535   -0.097841
 O   -4.288467    1.443897   -1.165463
 O   -4.203711    0.758203    1.172991
 N   -1.970309   -0.293896   -0.169520
 O    0.081100   -0.733982   -1.026299
 C   -0.322800    1.467931   -0.136504
 C   -1.102367    2.475343   -0.979837
 C   -0.958781    3.920462   -0.485357
 C   -1.510897    4.869716   -1.546004
 C   -1.701020    4.121427    0.833280
 N    1.098022    1.590399   -0.395373
 O    1.842489    1.062626    1.669020
 C    3.384572    0.841890   -0.188737
 C    3.998290    2.003413   -0.971767
 C    4.070977    3.311145   -0.170296
 C    4.878351    3.143243    1.115009
 C    4.687840    4.400833   -1.044110
 N    3.140635   -0.291112   -1.059563
 O    3.161732   -1.976126    0.475583
 N    2.270234   -1.883143   -2.943192
 C    1.128560   -3.855278   -3.576171
 N    1.195600   -4.370301   -2.360136
 C    1.807127   -3.655297   -1.431560
 H    1.633872   -2.181583   -4.863636
 H   -1.745900   -2.180802   -0.897244
 H    2.784142   -2.670190    3.970135
 H    2.176381   -1.182976    4.737112
 H   -0.625163   -3.986554    0.979064
 H   -5.324870   -1.606362    0.289719
 H   -5.860788   -1.071361   -1.318831
 H   -6.553388    2.268479    0.529951
 H   -7.102928    1.236551   -0.808080
 H   -7.067542    0.602011    0.866951
 H   -2.032704   -0.380880    2.774003
 H    0.114346   -0.119485    3.941714
 H    3.254504   -1.407242    1.949840
 H    4.052815   -0.694270    3.294058
 H    2.636888   -0.009564    2.600881
 H    1.516720   -3.738940    2.165116
 H   -3.525748   -1.731883    1.550630
 H   -3.061533   -3.312174    0.868351
 H   -3.547422   -0.936013   -2.108519
 H   -3.967874   -2.583018   -1.619918
 H   -2.535716    0.353513    0.366794
 H   -0.486583    1.624032    0.932388
 H   -2.160070    2.208731   -0.987539
 H   -0.744708    2.405546   -2.010928
 H    0.104249    4.142014   -0.332197
 H   -0.960285    4.774325   -2.479160
 H   -2.556376    4.642817   -1.739531
 H   -1.436850    5.900972   -1.211231
 H   -1.670314    5.167716    1.126287
 H   -1.256868    3.537552    1.635744
 H   -2.741393    3.823007    0.725405
 H    1.331832    1.598195   -1.378463
 H    4.074129    0.520035    0.598438
 H    5.004893    1.715576   -1.281673
 H    3.415755    2.180094   -1.879143
 H    3.052776    3.613526    0.099056
 H    5.849603    2.701927    0.903294
 H    4.350206    2.518173    1.830816
 H    5.040956    4.112522    1.578272
 H    4.117757    4.534513   -1.960289
 H    4.703676    5.348299   -0.512943
 H    5.709863    4.141122   -1.309279
 H    2.871871   -0.127193   -2.024856
 H    0.624539   -4.450450   -4.324167
 H    1.864441   -4.075401   -0.438589
