85 
6htr_ligand_ani.xyz
 C    3.471522    0.362194   -0.895208
 C    1.985071    0.221227   -0.592122
 C   -1.063103    0.824548   -1.568297
 C   -2.780538   -2.028597   -1.707654
 C   -4.250403   -1.880807    0.266586
 C   -2.364784   -1.712765    2.060731
 C    0.390332   -1.709758    2.659474
 C    1.842520   -1.677734    2.983656
 C   -1.557998   -2.802408    1.721234
 C   -5.605670    0.165773   -0.653896
 C   -4.758442    2.852998   -0.774685
 C   -1.773784   -0.627802    2.719645
 C   -0.421776   -0.639355    3.038123
 N    2.791667   -2.066939    2.228664
 C   -0.195064   -2.788547    1.995878
 C   -3.845291   -1.680782    1.748753
 C   -5.630499   -1.232198   -0.013883
 S   -4.821735    1.460403    0.329584
 O   -3.422301    1.097299    0.580456
 O   -5.692981    1.781114    1.454283
 N   -3.263734   -1.350621   -0.648667
 O   -3.070868   -3.199343   -1.956969
 C   -1.815640   -1.243331   -2.617951
 C   -1.112055   -2.205814   -3.565941
 O   -0.392699   -3.183317   -2.848342
 N   -0.850922   -0.486637   -1.847564
 O   -1.947604    1.471720   -2.112730
 C   -0.157435    1.412861   -0.471371
 C   -0.586468    2.838979   -0.144204
 C    0.295284    3.569878    0.877878
 C   -0.317979    4.933701    1.200880
 C    0.494380    2.751583    2.155573
 N    1.245560    1.318643   -0.840032
 O    1.523017   -0.818795   -0.124146
 N    3.610018    1.367577   -1.962327
 N    4.727339    1.462326   -2.469868
 N    5.689698    1.632913   -3.041974
 C    4.253881    0.749914    0.387526
 C    5.610834    0.097736    0.458909
 C    5.708310   -1.246525    0.832562
 C    6.951594   -1.868651    0.896655
 C    8.106278   -1.158236    0.582174
 C    8.016071    0.175897    0.200883
 C    6.772027    0.799176    0.136586
 H    3.813817   -0.621054   -1.248612
 H   -4.312471   -2.953562    0.054327
 H    2.073658   -1.243745    3.968019
 H   -1.993809   -3.668618    1.225486
 H   -5.077377    0.139140   -1.612531
 H   -6.629211    0.512140   -0.825853
 H   -5.761813    3.104623   -1.126411
 H   -4.357253    3.683832   -0.189116
 H   -4.079359    2.610115   -1.597510
 H   -2.377856    0.237102    2.982484
 H    0.015660    0.201284    3.572659
 H    2.428048   -2.106013    1.254825
 H    0.431440   -3.630431    1.709142
 H   -4.364284   -2.449789    2.337596
 H   -4.237522   -0.719782    2.091290
 H   -6.224206   -1.208923    0.908394
 H   -6.172738   -1.872847   -0.718506
 H   -2.907779   -0.431227   -0.404505
 H   -2.395706   -0.495481   -3.174843
 H   -0.389608   -1.643434   -4.164998
 H   -1.850310   -2.661366   -4.238889
 H   -1.076410   -3.742255   -2.446307
 H   -0.144616   -1.002176   -1.330805
 H   -0.278620    0.766888    0.407701
 H   -0.627881    3.416720   -1.076483
 H   -1.616507    2.786592    0.228956
 H    1.282652    3.741795    0.424191
 H   -0.448012    5.539582    0.296808
 H    0.312656    5.496379    1.898089
 H   -1.304026    4.809840    1.667278
 H    1.042800    3.331011    2.905369
 H   -0.472692    2.463124    2.593122
 H    1.067138    1.837327    1.958801
 H    1.693713    2.061793   -1.359293
 H    4.329656    1.841939    0.421030
 H    3.657943    0.435786    1.250731
 H    4.799334   -1.799695    1.086539
 H    7.021207   -2.912094    1.194268
 H    9.076394   -1.646557    0.635065
 H    8.916719    0.734504   -0.043332
 H    6.698038    1.841906   -0.166565
