31 
6htt_ligand_xtb.xyz
 C   -2.672809    0.246298   -0.043426
 C   -1.288691    0.152708   -0.161517
 C   -0.486862    1.272897    0.007225
 C   -1.089196    2.501877    0.267258
 C   -2.464457    2.602364    0.370473
 C   -3.438493   -1.009520   -0.233278
 O   -5.418880   -2.213663    0.096125
 C    3.931101    0.533650   -0.302072
 C    2.918115   -0.325546    0.112151
 C    3.235979   -1.629779    0.488329
 C    4.545191   -2.067581    0.449402
 C    5.553048   -1.211825    0.036342
 C    5.238582    0.083688   -0.336593
 N    1.572052    0.051713    0.165994
 C    1.005606    1.254052   -0.129242
 C   -3.261096    1.480504    0.220544
 N   -4.722233   -1.006381    0.185848
 O    1.618171    2.249279   -0.457635
 O   -2.980131   -2.014473   -0.760036
 H   -0.883409   -0.814712   -0.423049
 H   -0.457427    3.370540    0.373624
 H   -2.920759    3.561653    0.562124
 H   -4.778129   -2.796622   -0.367862
 H    3.689654    1.541762   -0.593027
 H    2.450584   -2.300681    0.809763
 H    4.778292   -3.080782    0.741607
 H    6.576060   -1.554912    0.005236
 H    6.018874    0.756196   -0.660230
 H    0.949918   -0.682657    0.474433
 H   -4.334463    1.580463    0.275942
 H   -5.147325   -0.369429    0.837333
