31 
6htt_ligand_ani.xyz
 C   45.470861   33.929849   85.530481
 C   45.331382   34.982615   86.427933
 C   44.845371   36.214920   85.993550
 C   44.548798   36.395986   84.641307
 C   44.704303   35.347811   83.740058
 C   45.974829   32.643207   86.083201
 O   46.068704   30.323899   85.935729
 C   44.197991   39.342220   89.177976
 C   44.259533   37.953746   89.315592
 C   44.109304   37.375573   90.580302
 C   43.899175   38.174037   91.697219
 C   43.835673   39.557883   91.566018
 C   43.985945   40.127934   90.305946
 N   44.477104   37.085585   88.225120
 C   44.643649   37.397330   86.900308
 C   45.162940   34.110879   84.181032
 N   45.771922   31.531072   85.310519
 O   44.611687   38.530901   86.449613
 O   46.564334   32.548443   87.154746
 H   45.657590   34.807165   87.450923
 H   44.202283   37.373046   84.318073
 H   44.467852   35.493828   82.689553
 H   46.478044   30.626257   86.773883
 H   44.314099   39.784686   88.197359
 H   44.162339   36.294382   90.689597
 H   43.784606   37.709748   92.673470
 H   43.671015   40.187253   92.436116
 H   43.938361   41.208276   90.189799
 H   44.414659   36.103613   88.444405
 H   45.313203   33.300158   83.473002
 H   44.895444   31.446700   84.810169
