31 
6hu1_ligand_dft.xyz
 N    0.050340    0.621081    0.027131
 C   -0.634251   -0.556982    0.234525
 C   -4.887271   -0.016180    0.447697
 C   -2.996173   -1.114140   -0.533912
 C   -2.127849   -0.356239    0.257110
 C   -4.051783    0.752378    1.248673
 C    4.197794    1.347504   -0.111594
 C    3.726006    0.077118    0.218086
 C    2.360062   -0.185992    0.279403
 C    1.434391    0.819147   -0.013079
 C    1.928507    2.090971   -0.351134
 C    3.288977    2.356881   -0.396376
 C    4.652948   -1.047647    0.531559
 C   -4.373754   -0.946027   -0.448661
 C   -2.678770    0.576217    1.139463
 N    5.901658   -0.963092   -0.029775
 O   -0.116185   -1.638575    0.414400
 O    6.691380   -2.094734    0.139539
 O    4.372569   -1.989920    1.260994
Cl   -2.390107   -2.260717   -1.693225
Cl   -6.613881    0.187152    0.558936
Cl    0.813640    3.392553   -0.714584
 H   -0.512333    1.426531   -0.209254
 H   -4.467278    1.470502    1.945931
 H    5.261550    1.561198   -0.112144
 H    2.013990   -1.174129    0.550123
 H    3.627519    3.356575   -0.643919
 H   -5.034348   -1.531985   -1.076401
 H   -2.016502    1.161071    1.771359
 H    5.981108   -0.625421   -0.980625
 H    6.103128   -2.669289    0.674253
