31 
6hu1_ligand_xtb.xyz
 N    0.037382    0.256160   -0.294521
 C   -0.892955    0.743437    0.578250
 C   -4.973547   -0.407311   -0.031440
 C   -2.669245   -1.054072    0.055195
 C   -2.291493    0.257813    0.334212
 C   -4.627164    0.903509    0.263055
 C    4.119516    1.218939   -0.148803
 C    3.709674   -0.112678   -0.155299
 C    2.354028   -0.408572   -0.215888
 C    1.397249    0.597216   -0.253397
 C    1.824317    1.927761   -0.282482
 C    3.179009    2.227061   -0.220782
 C    4.653365   -1.255919   -0.124983
 C   -4.001597   -1.390899   -0.125498
 C   -3.296657    1.216728    0.451414
 N    5.877755   -0.999246    0.387932
 O   -0.646209    1.546153    1.447877
 O    6.748989   -2.083827    0.512414
 O    4.399019   -2.368627   -0.561540
Cl   -1.515765   -2.346778   -0.022880
Cl   -6.624715   -0.830449   -0.269540
Cl    0.697311    3.209849   -0.470897
 H   -0.192451   -0.584982   -0.807001
 H   -5.389530    1.660728    0.348859
 H    5.167449    1.473906   -0.131746
 H    2.049177   -1.444801   -0.227254
 H    3.487604    3.260006   -0.249102
 H   -4.279031   -2.411836   -0.334765
 H   -3.003320    2.225517    0.698750
 H    6.115983   -0.246548    1.011639
 H    6.250651   -2.812632    0.081809
