35 
6hu2_ligand_dft.xyz
 O   -5.662012   -1.905829    0.551063
 N   -4.873393   -0.780493    0.328840
 C   -3.587051   -1.053970   -0.063746
 O   -3.278613   -2.204798   -0.359160
 C   -2.659181    0.106724   -0.120520
 C   -3.112101    1.418891   -0.231984
 C   -2.177588    2.450184   -0.263082
 C   -0.811661    2.207853   -0.186231
 C   -0.357479    0.870651   -0.091205
 C   -1.292634   -0.166529   -0.066277
 C    0.180855    3.338942   -0.200595
 N    1.005781    0.628653    0.015436
 C    1.538260   -0.718511   -0.087154
 C    3.045882   -0.695332    0.007759
 C    3.832295   -1.332417   -0.950824
 C    5.221688   -1.318395   -0.851753
 C    5.838125   -0.658468    0.206157
 C    5.059592   -0.014389    1.165883
 C    3.673009   -0.034100    1.067714
 H   -5.043733   -2.626018    0.302586
 H   -5.014640   -0.107684    1.071008
 H   -4.170451    1.637409   -0.332310
 H   -2.520839    3.477517   -0.354503
 H   -0.985208   -1.204278   -0.011956
 H   -0.325695    4.307112   -0.179237
 H    0.852299    3.285414    0.665168
 H    0.809109    3.320469   -1.102177
 H    1.593217    1.318955   -0.431098
 H    1.228191   -1.216037   -1.020190
 H    1.128704   -1.313805    0.739169
 H    3.354779   -1.844086   -1.782833
 H    5.821291   -1.819698   -1.605732
 H    6.921192   -0.644121    0.283420
 H    5.534893    0.501675    1.994961
 H    3.063121    0.468267    1.813715
