34 
6hu3_ligand_xtb.xyz
 C   -4.221939   -2.910384   -0.226980
 C   -3.456291   -3.127143    0.905195
 C   -2.399719   -2.277130    1.168569
 C   -2.119542   -1.225607    0.302092
 C   -2.887645   -1.032131   -0.841061
 C   -3.949302   -1.876999   -1.105450
 C   -0.980883    0.870220    0.338565
 C    0.258245    1.491644    0.116771
 C    0.322685    2.869963   -0.059058
 C   -0.831573    3.629977   -0.020899
 C   -2.061161    3.028160    0.204738
 C   -2.125736    1.661492    0.387274
 C    3.084556   -0.643518   -0.039422
 C    1.708165   -0.540563   -0.075450
 C    3.923961   -1.839606   -0.166999
Cl   -0.736353    5.335037   -0.248547
 O   -1.002861   -0.470557    0.583551
 N    1.464997    0.781294    0.084537
 N    2.630391    1.435134    0.210040
 N    3.586176    0.605831    0.140706
 N    5.236931   -1.580926   -0.075741
 O    6.133670   -2.641371   -0.182042
 O    3.507336   -2.976274   -0.341838
 F   -5.259014   -3.729918   -0.484352
 H   -3.690305   -3.947497    1.564159
 H   -1.778403   -2.418443    2.038348
 H   -2.649496   -0.231197   -1.524887
 H   -4.557499   -1.745423   -1.985777
 H    1.287845    3.323182   -0.217297
 H   -2.958475    3.623592    0.247028
 H   -3.076727    1.192206    0.588602
 H    0.957564   -1.287686   -0.202601
 H    5.655497   -0.677467    0.069516
 H    5.541574   -3.411598   -0.314100
