38 
6hv0_ligand_ani.xyz
 C   -4.388543   35.871070   23.793678
 C   -3.342987   35.575410   24.872512
 C   -1.940797   35.501534   24.278920
 N   -3.610104   34.338715   25.589380
 C   -4.598946   34.166595   26.497327
 C   -5.433020   35.138009   26.990574
 C   -6.399219   34.735389   27.954228
Cl   -7.463811   35.947491   28.577207
 N   -6.586182   33.537473   28.443984
 N   -5.744099   32.615325   27.948710
 C   -4.774310   32.838104   26.996577
 N   -4.133733   31.727499   26.662517
 C   -4.717975   30.764239   27.413616
 C   -5.715066   31.252364   28.230423
 C   -6.559457   30.569906   29.219963
 C   -6.803039   31.091668   30.478824
 C   -7.586366   30.344264   31.385703
 C   -8.035221   30.535756   32.690089
 N   -8.755245   29.440445   32.992346
 N   -8.835390   28.528713   32.017676
 C   -8.120162   29.073222   31.023648
 C   -7.856205   28.543570   29.728683
 C   -7.089070   29.282885   28.871922
 H   -5.399553   35.897612   24.212717
 H   -4.185770   36.841662   23.327830
 H   -4.366280   35.103041   23.010941
 H   -3.371201   36.387675   25.610696
 H   -1.196491   35.301625   25.055891
 H   -1.890606   34.699399   23.532480
 H   -1.674870   36.439583   23.780502
 H   -3.183864   33.477586   25.269898
 H   -5.384193   36.173870   26.670879
 H   -4.387535   29.734693   27.366250
 H   -6.405307   32.060286   30.754012
 H   -7.893652   31.346254   33.392390
 H   -9.227908   29.249465   33.864804
 H   -8.259863   27.577943   29.454188
 H   -6.883960   28.888661   27.880016
