90 
6hv2_ligand_dft.xyz
 N    0.695087    0.637258    2.687298
 C    0.764514   -0.700796    2.020026
 C   -0.673764   -0.985785    1.562991
 O   -1.611446   -0.440541    2.148352
 C    1.337124   -1.792350    2.943247
 C    0.497340   -1.994934    4.215366
 C    2.818874   -1.525308    3.231805
 C    0.941244   -3.193267    5.053750
 N   -0.770621   -1.860864    0.547771
 C   -1.983029   -2.050641   -0.264394
 C   -2.092534   -0.787463   -1.132627
 O   -1.562383   -0.750519   -2.240505
 C   -3.214315   -2.454802    0.552153
 C   -4.468161   -2.649791   -0.300985
 S   -4.242881   -3.977198   -1.529063
 C   -5.841473   -3.858262   -2.372789
 N   -2.710197    0.285649   -0.580354
 C   -2.424521    1.613064   -1.085703
 C   -1.047494    2.039417   -0.542765
 O   -0.372169    1.267379    0.133446
 C   -3.592827    2.590671   -0.818995
 C   -4.084606    2.603595    0.638196
 C   -4.750070    2.269980   -1.769235
 C   -3.027324    2.920905    1.696298
 N   -0.559160    3.254018   -0.890243
 C    0.633798    3.784826   -0.231073
 C    1.706211    2.688179   -0.090581
 O    2.120390    2.327933    1.012715
 C    0.296888    4.419914    1.111485
 O   -0.669169    5.410062    0.831808
 N    2.171388    2.237994   -1.272763
 C    2.844215    0.952891   -1.504687
 C    1.739540   -0.106668   -1.633117
 O    1.628471   -1.083324   -0.917064
 C    3.938379    0.600876   -0.491653
 C    4.884988   -0.446291   -1.036572
 C    4.717791   -1.799979   -0.742219
 C    5.944754   -0.063486   -1.862547
 C    5.591314   -2.751166   -1.261318
 C    6.818347   -1.011295   -2.384910
 C    6.642578   -2.359512   -2.084626
 O    0.902162    0.215201   -2.601579
 H   -0.305872    0.790182    2.902496
 H    1.242454    0.671575    3.548014
 H    1.048337    1.381604    2.045288
 H    1.405209   -0.587982    1.145516
 H    1.274791   -2.714191    2.350165
 H   -0.554898   -2.122353    3.938117
 H    0.539669   -1.091206    4.842786
 H    2.966847   -0.666054    3.900177
 H    3.276914   -2.386109    3.723851
 H    3.378030   -1.337822    2.309182
 H    0.244588   -3.356399    5.880346
 H    1.935657   -3.048099    5.485756
 H    0.962647   -4.107468    4.450527
 H    0.091312   -1.992724    0.021615
 H   -1.744707   -2.850306   -0.967793
 H   -2.968483   -3.386483    1.073541
 H   -3.425874   -1.714244    1.326730
 H   -5.304363   -2.906118    0.357098
 H   -4.725400   -1.717603   -0.818312
 H   -5.968794   -2.878046   -2.840383
 H   -5.852603   -4.623185   -3.151795
 H   -6.665385   -4.050323   -1.680234
 H   -2.881653    0.218370    0.417348
 H   -2.297960    1.512759   -2.169142
 H   -3.235923    3.603162   -1.053782
 H   -4.567100    1.643332    0.864551
 H   -4.883301    3.351093    0.698863
 H   -5.114369    1.250459   -1.603911
 H   -5.584287    2.958137   -1.604317
 H   -4.445522    2.354679   -2.817354
 H   -2.501167    3.851811    1.455500
 H   -3.497434    3.039923    2.676985
 H   -2.288050    2.116982    1.787537
 H   -1.184123    3.940772   -1.288216
 H    1.025669    4.572688   -0.883843
 H   -0.095144    3.653641    1.794642
 H    1.210135    4.839526    1.550599
 H   -0.844762    5.915057    1.634030
 H    1.672500    2.577854   -2.085731
 H    3.308983    1.042724   -2.492106
 H    3.487746    0.269049    0.445084
 H    4.486557    1.520391   -0.266487
 H    3.888388   -2.111389   -0.114004
 H    6.095819    0.990084   -2.089021
 H    5.448926   -3.801045   -1.023921
 H    7.639792   -0.696832   -3.021218
 H    7.325548   -3.100945   -2.487231
 H    0.087727   -0.346774   -2.569015
