87 
6hv4_ligand_dft.xyz
 C   -1.708433    3.324089    2.123456
 C   -2.430359    2.479550    1.287052
 C   -2.296416    2.562059   -0.105418
 C   -3.084125    1.604080   -0.972155
 C   -2.341397    0.261346   -1.074183
 C   -4.384202   -1.295960   -0.670878
 C    1.213293    0.862223   -2.452188
 C    2.172182    2.786209   -1.365682
 C   -0.739223   -0.139602    3.300400
 C   -1.698432   -1.264345    2.924428
 O   -1.017583   -2.487818    2.815544
 C   -0.053170   -2.425154    1.787503
 C    1.019239   -1.394825    2.108310
 N    0.371087   -0.048226    2.298553
 C    1.324983    1.047629    2.655441
 C    2.288112    1.383835    1.505406
 O    3.080252    0.546807    1.092440
 N    2.193117    2.656472    1.067163
 C    2.909187    3.221509   -0.088141
 C    4.412284    2.954631   -0.085528
 O    1.485581    3.570506   -1.998303
 N    2.289516    1.461163   -1.693243
 C    1.668432   -0.411951   -3.201674
 C    1.929511   -1.582996   -2.286163
 C    3.077462   -1.658365   -1.501254
 C    3.257996   -2.675866   -0.565707
 C    2.271630   -3.650790   -0.408275
 O    2.311303   -4.648909    0.507382
 C    3.471493   -4.777052    1.307031
 C    1.134887   -3.620049   -1.224105
 C    0.979267   -2.601977   -2.150199
 C    0.072437    0.557404   -1.469732
 O    0.329164    0.419762   -0.273874
 N   -1.174385    0.406487   -1.953710
 C   -0.828589    4.263955    1.578734
 C   -0.675973    4.339201    0.196477
 C   -1.405381    3.491038   -0.637314
 C   -3.089304   -1.025794   -1.475042
 O   -2.196454   -2.103152   -1.258037
 C   -4.621292   -2.798291   -0.509393
 C   -5.592428   -0.660635   -1.370107
 O   -4.191741   -0.704329    0.624302
 H   -1.861415    3.283999    3.199428
 H   -3.132497    1.759923    1.703767
 H   -3.259282    2.027165   -1.968432
 H   -4.053368    1.435058   -0.504535
 H   -1.935396    0.041029   -0.088312
 H    0.881740    1.608617   -3.178586
 H   -1.246905    0.826911    3.318040
 H   -0.276876   -0.333254    4.272392
 H   -2.236635   -1.028737    1.992498
 H   -2.436944   -1.371433    3.722464
 H    0.415206   -3.408321    1.713598
 H   -0.530913   -2.196944    0.822564
 H    1.527421   -1.636145    3.046338
 H    1.749173   -1.298150    1.305269
 H   -0.021027    0.195658    1.366283
 H    0.717563    1.908249    2.945013
 H    1.909625    0.715414    3.517152
 H    1.358943    3.168753    1.329994
 H    2.746444    4.299402   -0.026935
 H    4.867930    3.507167   -0.911709
 H    4.849532    3.311972    0.850640
 H    4.650714    1.897121   -0.194411
 H    2.680052    0.867188   -0.965812
 H    0.895814   -0.678983   -3.931187
 H    2.563937   -0.139842   -3.769062
 H    3.860624   -0.913326   -1.613111
 H    4.164239   -2.689450    0.028269
 H    4.363480   -4.941302    0.691760
 H    3.303013   -5.647699    1.940132
 H    3.623003   -3.891440    1.937931
 H    0.392620   -4.404491   -1.120545
 H    0.113530   -2.619212   -2.810582
 H   -1.342200    0.659286   -2.919367
 H   -0.295766    4.954010    2.228044
 H    0.005713    5.056612   -0.249016
 H   -1.269508    3.567385   -1.711990
 H   -3.367317   -0.983181   -2.540993
 H   -1.342040   -1.861666   -1.640177
 H   -3.823486   -3.252128    0.079703
 H   -5.582521   -2.964258   -0.007927
 H   -4.660753   -3.300302   -1.479883
 H   -6.481594   -0.755123   -0.737705
 H   -5.447271    0.400175   -1.587674
 H   -5.801669   -1.174803   -2.313439
 H   -4.916482   -1.005757    1.186546
