84 
6hv5_ligand_ani.xyz
 C   -4.904513   -0.225649   -0.687785
 C   -3.908199    0.859270   -1.112993
 C   -0.603877    0.893219   -0.782293
 C    2.959485    1.392423   -0.750940
 C    5.017133    0.852273    0.490599
 C    3.396113   -0.224136    2.142962
 C    0.646795   -0.252598    2.747952
 C   -0.805695   -0.176114    3.020795
 C    2.871355    0.627124    3.114906
 C    6.720523   -0.098934   -1.257401
 C    7.198098   -2.647484   -2.339371
 C    2.535464   -1.145077    1.526953
 C    1.173147   -1.130788    1.796916
 N   -1.726674   -0.366349    2.160253
 C    1.516132    0.599177    3.427923
 C    4.833345   -0.110238    1.694722
 C    6.456480    0.817946   -0.059244
 S    6.468122   -1.851587   -0.926674
 O    7.248143   -2.210651    0.256957
 O    5.027729   -2.135596   -0.959886
 N    4.042038    0.587935   -0.553771
 O    2.922809    2.573619   -0.444014
 C    1.763176    0.711481   -1.429479
 C    1.987011    0.617578   -2.942154
 N    0.580797    1.474397   -1.100576
 O   -0.751656   -0.325415   -0.771469
 C   -1.762726    1.869199   -0.479126
 C   -1.450377    2.924894    0.597351
 C   -2.057725    4.307038    0.297170
 C   -3.575242    4.246641    0.110635
 C   -1.689665    5.287182    1.410415
 N   -2.968043    1.139449   -0.161695
 O   -3.962400    1.402704   -2.198998
 N   -6.186500   -0.027787   -1.387776
 N   -6.517842    1.164002   -1.339931
 N   -6.897619    2.228489   -1.335613
 C   -4.322307   -1.617206   -0.998620
 C   -5.069381   -2.726612   -0.295626
 C   -6.201847   -3.299645   -0.878985
 C   -6.921553   -4.288056   -0.214344
 C   -6.516589   -4.718909    1.045752
 C   -5.388535   -4.156946    1.635556
 C   -4.670397   -3.168600    0.967795
 H   -5.079130   -0.145111    0.397431
 H    4.802463    1.869524    0.835106
 H   -1.068068    0.160177    4.031697
 H    3.526836    1.320870    3.640072
 H    6.079669    0.160303   -2.105357
 H    7.769262    0.001558   -1.557169
 H    7.092738   -3.723088   -2.184136
 H    6.659503   -2.345433   -3.240643
 H    8.255986   -2.381298   -2.398803
 H    2.936249   -1.870695    0.817943
 H    0.521066   -1.826721    1.273884
 H   -1.309101   -0.640502    1.252172
 H    1.124998    1.265429    4.193641
 H    5.216734   -1.101765    1.427524
 H    5.453433    0.259949    2.521180
 H    6.720934    1.829444   -0.390132
 H    7.148004    0.562585    0.752842
 H    3.945742   -0.388956   -0.814182
 H    1.624109   -0.299073   -1.025733
 H    2.114936    1.613286   -3.379502
 H    1.119485    0.140981   -3.407421
 H    2.876034    0.016799   -3.164826
 H    0.750166    2.457460   -0.935683
 H   -1.970563    2.392689   -1.423327
 H   -0.366015    3.040139    0.727824
 H   -1.833253    2.575120    1.564926
 H   -1.617198    4.672656   -0.643738
 H   -3.858031    3.645075   -0.762541
 H   -3.986904    5.251831   -0.031121
 H   -4.057901    3.806413    0.992524
 H   -0.603798    5.368802    1.534979
 H   -2.082221    6.289176    1.203620
 H   -2.112288    4.954405    2.367106
 H   -2.918463    0.517698    0.643305
 H   -4.357265   -1.747287   -2.085461
 H   -3.262463   -1.622913   -0.707422
 H   -6.526016   -2.962185   -1.861202
 H   -7.801243   -4.723572   -0.682424
 H   -7.078546   -5.490298    1.566630
 H   -5.066760   -4.490230    2.619401
 H   -3.786948   -2.736800    1.436611
