86 
6hv7_ligand_ani.xyz
 C    4.495038   -2.843815   -3.183286
 C    3.876487   -2.202550   -1.102532
 C    3.491884   -1.116608   -0.141828
 C    1.623852    1.365461    0.391625
 C   -1.115652   -0.435210   -0.973654
 C   -2.869827   -2.104936   -0.544806
 C   -1.933147   -2.157881    1.799049
 C    0.264951   -1.277359    3.322356
 C    1.440888   -0.786821    4.145586
 C   -0.708037   -2.823680    1.737601
 C   -5.408305   -1.605354   -0.948391
 C   -7.020091    0.649236   -0.443758
 C   -2.038737   -1.025944    2.613127
 C   -0.950314   -0.592956    3.361557
 N    2.363148    0.068417    3.332502
 C    0.377797   -2.397986    2.495864
 C   -3.091829   -2.561698    0.914200
 C   -4.102910   -2.231239   -1.447188
 S   -5.312200    0.162802   -0.563595
 O   -4.725178    0.863874   -1.705792
 O   -4.716300    0.323070    0.768105
 N   -2.364945   -0.746850   -0.553521
 O   -0.420742   -1.172772   -1.659448
 C   -0.632178    0.955495   -0.548870
 C   -1.266299    1.995017   -1.490606
 C   -0.888921    3.456208   -1.209496
 C   -1.552495    4.360006   -2.249143
 C   -1.272289    3.888773    0.206209
 N    0.811955    0.956397   -0.610751
 O    1.210955    1.823151    1.459204
 C    3.137665    1.291859    0.112382
 C    3.642395    2.557619   -0.599760
 C    3.380067    3.891194    0.115742
 C    3.964060    3.919792    1.528571
 C    3.936748    5.040763   -0.724190
 N    3.507930    0.123552   -0.662283
 O    3.168118   -1.377207    1.019412
 N    4.173580   -1.851775   -2.358283
 C    4.523968   -4.169067   -2.756237
 N    4.233434   -4.521061   -1.504134
 C    3.907943   -3.525709   -0.678732
 H    4.737220   -2.578539   -4.210710
 H   -2.073865   -2.711876   -0.990773
 H    2.008421   -1.636751    4.532055
 H    1.083006   -0.200377    4.994028
 H   -0.601842   -3.683538    1.077358
 H   -5.776078   -2.099146   -0.041467
 H   -6.169948   -1.700001   -1.729960
 H   -7.030301    1.713479   -0.201385
 H   -7.509839    0.480585   -1.405283
 H   -7.502399    0.081086    0.354345
 H   -2.975677   -0.473476    2.650501
 H   -1.039786    0.290921    3.988425
 H    2.723023   -0.493780    2.538209
 H    3.147410    0.406095    3.909557
 H    1.838829    0.876308    2.944656
 H    1.321828   -2.935647    2.445710
 H   -3.998124   -2.098001    1.315214
 H   -3.242140   -3.648331    0.931287
 H   -3.837133   -1.795801   -2.416178
 H   -4.307301   -3.297132   -1.619269
 H   -2.861657   -0.079305    0.026756
 H   -0.929101    1.149497    0.491153
 H   -2.359390    1.890333   -1.445118
 H   -0.970372    1.740337   -2.518491
 H    0.201495    3.561105   -1.315491
 H   -1.267589    4.071854   -3.267414
 H   -2.646084    4.297122   -2.175244
 H   -1.267989    5.407826   -2.101943
 H   -1.083672    4.959485    0.342348
 H   -0.696637    3.349486    0.964325
 H   -2.341124    3.712611    0.392934
 H    1.193343    0.333103   -1.315047
 H    3.610061    1.211124    1.094730
 H    4.726113    2.436643   -0.741300
 H    3.196783    2.596299   -1.604727
 H    2.291362    4.023954    0.201345
 H    5.039226    3.697505    1.512739
 H    3.474423    3.194076    2.186698
 H    3.835992    4.910544    1.978723
 H    3.502347    5.048148   -1.730195
 H    3.726695    6.010242   -0.258567
 H    5.025488    4.949945   -0.829301
 H    3.854249    0.217053   -1.609228
 H    4.790167   -4.969090   -3.443925
 H    3.668965   -3.778179    0.350525
