62 
6hvh_ligand_ani.xyz
 C   84.984038   46.893034  267.827578
 C   83.994254   46.860056  268.985949
 O   83.467641   45.564891  269.190334
 C   84.480398   44.634786  269.517235
 C   85.514130   44.514547  268.401983
 C   86.111027   45.881133  268.066722
 N   86.992371   45.782964  266.915396
 C   87.922444   46.738591  266.665915
 O   88.051403   47.710973  267.411328
 C   88.777033   46.517079  265.451246
 C   88.299065   45.811377  264.348483
 C   89.100057   45.651087  263.228705
 N   90.333129   46.154535  263.141750
 C   90.796240   46.832769  264.185476
 C   90.081381   47.045293  265.374826
 N   90.595315   47.787962  266.419788
 C   91.932576   48.062593  266.728602
 C   92.198471   49.276990  267.399704
 C   92.965981   47.189249  266.475905
 C   94.281384   47.524728  266.865548
 N   95.269880   46.618984  266.609914
 C   96.473149   46.949294  266.994675
 C   96.752465   48.180607  267.640642
 N   95.828450   49.070838  267.886146
 C   94.555625   48.764893  267.500508
 C   93.468398   49.670261  267.764145
 C   93.645267   50.990668  268.427384
 C   92.809937   51.317273  269.492423
 C   92.940694   52.573074  270.081315
 N   92.259739   53.117748  271.148219
 C   91.240082   52.447679  271.920567
 C   92.721047   54.399233  271.350374
 C   93.688600   54.704089  270.438068
 C   93.852818   53.543821  269.605291
 C   94.666429   53.211378  268.511604
 C   94.562946   51.957062  267.945286
 H   85.411149   47.894667  267.713389
 H   84.462628   46.636443  266.896397
 H   84.491262   47.211440  269.907891
 H   83.140251   47.515267  268.791492
 H   83.977420   43.679707  269.693536
 H   84.977041   44.936417  270.456372
 H   85.021967   44.112346  267.505199
 H   86.305508   43.815575  268.699132
 H   86.711648   46.241791  268.911865
 H   87.005254   44.931756  266.374779
 H   87.285727   45.415548  264.339136
 H   88.739761   45.097541  262.365011
 H   91.792300   47.257104  264.072246
 H   89.883877   48.156234  267.047132
 H   91.359807   49.940994  267.602098
 H   92.819783   46.225083  266.003951
 H   97.277970   46.239243  266.804222
 H   97.771255   48.413449  267.946396
 H   92.082328   50.597238  269.863098
 H   90.911046   53.115115  272.719888
 H   90.375393   52.196589  271.297048
 H   91.632574   51.529780  272.370837
 H   92.304258   54.996893  272.152208
 H   94.228810   55.636860  270.356219
 H   95.378995   53.929168  268.114082
 H   95.204123   51.701214  267.106345
