51 
6hvi_ligand_ani.xyz
 C   93.146851   52.801641  269.994878
 C   92.973259   51.541931  269.395097
 C   96.200690   46.753411  267.023971
 C   96.605968   47.968630  267.633047
 C   89.866571   47.421967  265.431162
 C   88.539659   46.981092  265.531273
 C   87.961737   46.272382  264.489295
 N   94.967692   46.533906  266.654312
 C   88.725243   46.029100  263.356436
 C   90.527848   47.127712  264.229700
 C   88.306319   46.146338  268.187460
 S   87.610279   47.299490  267.019876
 O   86.223417   46.922526  266.774909
 C   91.202223   52.410343  271.424784
 C   92.182053   49.507244  267.383298
 O   87.930877   48.652536  267.487987
 N   89.984135   46.453200  263.219974
 N   90.436558   48.150775  266.454587
 C   91.792795   48.306824  266.748847
 C   92.730605   47.326725  266.515533
 C   94.075672   47.539739  266.888842
 N   95.777186   48.953334  267.856349
 C   94.476554   48.763808  267.488046
 C   93.487329   49.777466  267.733808
 C   93.801709   51.090429  268.366873
 N   92.314108   53.231945  271.008831
 C   92.576531   54.488896  271.668377
 C   94.190486   53.616318  269.511275
 C   95.004284   53.172038  268.478684
 C   94.826794   51.921905  267.901824
 H   92.188015   50.879450  269.749359
 H   96.929639   45.961816  266.850211
 H   97.645426   48.107244  267.926231
 H   86.933563   45.930502  264.575512
 H   88.310568   45.477857  262.517143
 H   91.548747   47.473473  264.077538
 H   87.828280   46.333691  269.151739
 H   88.094848   45.129369  267.851428
 H   89.384219   46.314677  268.258034
 H   90.573950   52.972321  272.121972
 H   90.583075   52.124906  270.565016
 H   91.530905   51.490496  271.928735
 H   91.417235   50.258689  267.573353
 H   89.774724   48.687676  267.009931
 H   92.484009   46.372195  266.066371
 H   91.865734   54.624074  272.488456
 H   93.590387   54.519083  272.089874
 H   92.471780   55.341277  270.982827
 H   94.364816   54.597529  269.937236
 H   95.801670   53.818415  268.118939
 H   95.476981   51.588610  267.098760
