51 
6hvi_ligand_dft.xyz
 C   -4.489574   -1.628589   -0.198366
 C   -3.283266   -0.955616    0.066856
 C   -1.216179    4.780399    1.281936
 C   -2.509988    4.253173    1.049287
 C    3.110618    0.234097   -0.644699
 C    4.173440   -0.639465   -0.360920
 C    5.469503   -0.315401   -0.741310
 N   -0.124289    4.090207    1.063161
 C    5.682566    0.895801   -1.383869
 C    3.456646    1.429185   -1.304983
 C    3.544313   -1.624782    2.177003
 S    3.904984   -2.174797    0.513619
 O    5.158382   -2.916530    0.530939
 C   -3.626742   -3.637937    0.886236
 C   -0.571813    0.229730   -0.358684
 O    2.687936   -2.794867   -0.022873
 N    4.693838    1.752337   -1.655713
 N    1.804787   -0.103864   -0.326720
 C    0.725466    0.755605   -0.111303
 C    0.861206    2.039139    0.365617
 C   -0.291957    2.823546    0.586971
 N   -2.699005    3.038814    0.593867
 C   -1.590477    2.296305    0.344740
 C   -1.718809    0.954195   -0.141935
 C   -3.040763    0.331712   -0.414432
 N   -4.729332   -2.897005    0.312261
 C   -5.868969   -3.640794   -0.179399
 C   -5.442526   -0.963236   -0.991380
 C   -5.195163    0.318580   -1.465742
 C   -4.007674    0.980424   -1.184999
 H   -2.520037   -1.423955    0.677100
 H   -1.098378    5.793963    1.660267
 H   -3.393131    4.854765    1.253322
 H    6.281815   -1.002781   -0.531981
 H    6.679352    1.189894   -1.699510
 H    2.678254    2.139291   -1.568294
 H    3.295970   -2.517216    2.755841
 H    4.430204   -1.136774    2.585922
 H    2.693634   -0.940695    2.146326
 H   -3.979754   -4.622335    1.198321
 H   -2.793652   -3.778628    0.179454
 H   -3.236287   -3.134415    1.778248
 H   -0.653944   -0.776508   -0.761536
 H    1.602928   -1.097691   -0.349088
 H    1.824252    2.478173    0.599908
 H   -5.902063   -4.613753    0.314081
 H   -6.805583   -3.123544    0.057922
 H   -5.834486   -3.806408   -1.267831
 H   -6.382829   -1.439740   -1.241193
 H   -5.950019    0.806767   -2.075609
 H   -3.827665    1.979697   -1.561844
