103 
6hvw_ligand_ani.xyz
 C   -6.844043   -1.608880    1.040315
 C   -5.335114   -1.354907    1.038332
 C   -4.952481    0.016740    0.464003
 C   -3.424037    0.166550    0.493161
 C   -2.824683    1.471623   -0.076886
 C   -3.247803    4.057777   -0.069047
 C    0.827057    0.599913   -0.797254
 C    2.179742   -1.408879   -1.232455
 C   -7.198105   -2.981372    1.624770
 C   -8.707853   -3.237504    1.614031
 C   -9.283825   -3.076751    0.204206
 C   -8.928096   -1.707992   -0.382621
 C   -7.416386   -1.456718   -0.377457
 C   -7.057728   -0.086119   -0.957515
 C   -5.549109    0.178763   -0.942104
 C   -3.268588    2.712096    0.707805
 O   -2.444748    2.818715    1.856005
 C   -1.888701    4.404131   -0.659060
 C   -4.333971    4.093155   -1.137475
 O   -3.506342    5.082382    0.909912
 N   -1.373323    1.387047   -0.059287
 C   -0.681094    0.738273   -1.029645
 O   -1.210777    0.312497   -2.047002
 C    1.527058    1.947883   -1.099133
 C    2.985440    1.983207   -0.704272
 C    3.971123    1.448438   -1.539581
 C    5.311680    1.504119   -1.200929
 C    5.710011    2.103231   -0.002316
 O    7.044534    2.090348    0.254167
 C    7.505842    2.811105    1.374807
 C    4.742669    2.628570    0.854536
 C    3.397975    2.558078    0.498464
 N    1.298167   -0.470069   -1.648685
 O    2.669451   -1.397776   -0.101955
 C    2.568968   -2.487629   -2.267682
 C    1.396273   -3.387175   -2.649701
 N    3.657138   -3.289010   -1.740060
 C    4.906442   -2.710381   -1.629981
 O    5.317365   -1.875077   -2.413155
 C    5.668229   -3.164254   -0.381060
 N    5.055754   -2.491505    0.800296
 C    5.756813   -1.202415    1.127460
 C    5.018224   -0.484813    2.248895
 O    4.924862   -1.292119    3.411467
 C    4.275777   -2.518592    3.131764
 C    4.996214   -3.311617    2.045026
 H   -7.322243   -0.837859    1.671371
 H   -4.844034   -2.139448    0.439789
 H   -4.938190   -1.452766    2.058575
 H   -5.410312    0.777173    1.118392
 H   -2.987092   -0.654137   -0.091309
 H   -3.066958    0.046279    1.525427
 H   -3.111752    1.549786   -1.130309
 H    1.031381    0.329291    0.243672
 H   -6.693633   -3.756432    1.027200
 H   -6.802844   -3.067136    2.645452
 H   -9.198198   -2.518779    2.286964
 H   -8.928877   -4.236138    2.009572
 H   -8.870810   -3.863114   -0.444621
 H  -10.371159   -3.218860    0.213430
 H   -9.318272   -1.613779   -1.404479
 H   -9.413732   -0.918714    0.211756
 H   -6.940132   -2.230762   -1.006712
 H   -7.447801   -0.001470   -1.980239
 H   -7.567458    0.689609   -0.365501
 H   -5.351377    1.184884   -1.332346
 H   -5.045300   -0.525277   -1.623395
 H   -4.314268    2.568958    1.031461
 H   -2.576871    3.730872    2.166739
 H   -1.108040    4.380115    0.108201
 H   -1.924292    5.414546   -1.075618
 H   -1.614318    3.709243   -1.460103
 H   -5.316668    3.842838   -0.716439
 H   -4.394419    5.098071   -1.569035
 H   -4.122232    3.392339   -1.951243
 H   -4.454128    5.072339    1.100950
 H   -0.922180    1.695446    0.790683
 H    1.419876    2.153081   -2.171657
 H    0.981988    2.742038   -0.569570
 H    3.679816    0.981145   -2.477308
 H    6.072256    1.050050   -1.831183
 H    8.594399    2.741898    1.353400
 H    7.206976    3.866568    1.327405
 H    7.135841    2.378069    2.314696
 H    5.019273    3.094134    1.795742
 H    2.658185    2.978222    1.177489
 H    0.741247   -0.624250   -2.480128
 H    2.960590   -1.986047   -3.158632
 H    0.582251   -2.825760   -3.120829
 H    1.739341   -4.145630   -3.358436
 H    0.988397   -3.893723   -1.766789
 H    3.385422   -3.862160   -0.950563
 H    6.720972   -2.889789   -0.472571
 H    5.599836   -4.250282   -0.261450
 H    4.082699   -2.233723    0.532600
 H    6.783943   -1.422872    1.440564
 H    5.801698   -0.592655    0.223610
 H    4.014062   -0.197687    1.898287
 H    5.561216    0.416717    2.544412
 H    4.250967   -3.082716    4.068030
 H    3.236214   -2.331101    2.809437
 H    4.471446   -4.253389    1.851201
 H    6.014852   -3.550168    2.374185
