39 
6hx1_ligand_xtb.xyz
 C   -5.499033   -7.755333   28.463874
 C   -4.773351   -7.403188   27.319988
 C   -4.404614   -8.415906   26.443544
 C   -3.352489   -7.031624   24.680616
 C   -4.502653   -6.538702   23.825556
 C   -4.226300   -5.678347   22.630605
 C   -5.244634  -11.800010   26.883729
 C   -6.894431  -11.260516   30.255053
 C   -7.594088  -11.964072   31.245931
 C   -8.093427  -11.655092   32.508764
 C   -7.599183  -13.996151   29.864315
Cl   -5.956939   -6.518442   29.565452
 N   -3.656140   -8.284060   25.330242
 C   -4.679119   -7.093662   22.443810
 C   -4.825884   -9.724532   26.793733
 N   -4.642340  -10.861417   26.139580
 C   -5.823340  -11.265108   28.030333
 C   -6.557130  -11.921436   29.094681
 N   -8.671312  -12.779901   32.961821
 N   -8.606018  -13.806283   32.125029
 C   -7.949726  -13.340981   31.058219
 C   -6.921340  -13.288580   28.918118
 N   -5.542141   -9.928446   27.955357
 N   -5.882745   -8.954470   28.800100
 H   -4.520946   -6.371904   27.150769
 H   -2.467802   -7.184940   24.057816
 H   -3.105545   -6.291304   25.446335
 H   -5.401893   -6.331510   24.392718
 H   -3.197678   -5.439414   22.406778
 H   -4.915081   -4.880052   22.402222
 H   -5.227449  -12.822681   26.564281
 H   -6.631552  -10.226927   30.405093
 H   -8.073607  -10.750121   33.080416
 H   -7.869897  -15.029561   29.717171
 H   -3.609242   -9.123103   24.769126
 H   -5.680165   -7.272537   22.083594
 H   -3.957210   -7.814020   22.089410
 H   -9.133190  -12.906278   33.850600
 H   -6.651366  -13.771391   27.992221
