49 
6hzv_ligand_xtb.xyz
 C    3.756041   -2.340481    0.197358
 C    2.806352   -0.152852   -0.069048
 C    5.043313   -1.792794    0.278621
 C    4.065822    0.389933   -0.010920
 C    5.203125   -0.441716    0.172304
 C    1.552187   -2.296619   -0.035319
 C    2.041446   -3.591487    0.100633
 C    0.188843   -1.870201   -0.206410
 C   -2.376276   -1.201187   -0.499938
 C   -1.346932   -0.244501   -0.314173
 C   -3.296476    0.847868   -0.490206
 C   -5.227177   -1.777232    0.647919
 C    0.536176    3.827829   -0.809901
 O    1.144406    3.731090    0.453821
 C   -0.587115    2.252284    1.294150
 O   -4.098790    1.744529   -0.556994
 N   -3.552868   -0.504808   -0.619275
 C   -4.887418   -1.040215   -0.651717
 O   -5.034319   -0.885866    1.720237
 C   -1.984993   -2.524215   -0.533897
 N   -0.707029   -2.838652   -0.379706
 N   -1.923108    0.987067   -0.315919
 C   -1.270548    2.258220   -0.075925
 C    0.197520    3.552408    1.477112
 C   -0.242928    2.559521   -1.169969
 N   -0.075633   -0.551554   -0.174334
 N    2.658423   -1.487846    0.028995
 N    3.369406   -3.605337    0.244351
 C    4.248957    1.784494   -0.165825
 N    4.443466    2.902926   -0.318126
 H    1.910775    0.435017   -0.191336
 H    5.875260   -2.462976    0.414994
 H    6.179971    0.012905    0.222231
 H    1.466241   -4.495239    0.098947
 H   -4.576923   -2.657134    0.760921
 H   -6.270047   -2.116758    0.592195
 H    1.350363    3.994422   -1.517466
 H   -0.144858    4.693531   -0.833399
 H    0.101940    1.407577    1.341795
 H   -1.329654    2.147031    2.086154
 H   -5.551289   -0.179423   -0.765638
 H   -5.002257   -1.719054   -1.501854
 H   -5.343774   -1.290909    2.536307
 H   -2.665109   -3.351297   -0.686047
 H   -2.070824    3.008151   -0.095162
 H   -0.500429    4.404592    1.499359
 H    0.764471    3.533537    2.409848
 H    0.448347    1.719804   -1.247853
 H   -0.740699    2.691295   -2.131512
