37 
6hzy_ligand_ani.xyz
 C    2.975069   -1.171885    0.290661
 C    1.721127   -0.349546    0.107672
 C    3.009883    3.049262   -0.054227
 C    2.964309    1.598434   -0.485881
 C    4.277566    0.865291   -0.237385
 C    4.103497   -0.607555   -0.558005
 O    2.809470   -2.524349   -0.066694
 O    5.315343   -1.264711   -0.250266
 O    4.663499    1.020081    1.107892
 O    1.845797    0.986665    0.197849
 N    0.608693   -0.964950   -0.012903
 O   -0.435376   -0.039942   -0.055198
 C   -1.667559   -0.645172   -0.048761
 O   -1.848308   -1.831926   -0.031450
 N   -2.593586    0.365649   -0.067133
 C   -3.993827    0.262963   -0.023083
 C   -4.739596    1.442251   -0.119600
 C   -6.127317    1.396753   -0.075239
 C   -6.784196    0.177493    0.067946
 C   -6.036119   -0.992134    0.163995
 C   -4.646550   -0.963546    0.119158
 H    3.278470   -1.082345    1.347205
 H    3.785580    3.583004   -0.613831
 H    3.239573    3.127941    1.011821
 H    2.046106    3.524697   -0.252701
 H    2.756392    1.535798   -1.565809
 H    5.037780    1.293467   -0.913610
 H    3.844306   -0.732393   -1.621049
 H    1.856740   -2.706549   -0.027267
 H    5.111115   -2.211654   -0.225354
 H    5.391344    0.394617    1.242011
 H   -2.204491    1.294076   -0.109121
 H   -4.228044    2.395520   -0.231753
 H   -6.696466    2.319684   -0.152033
 H   -7.869268    0.137786    0.104442
 H   -6.538581   -1.950160    0.275691
 H   -4.057421   -1.870583    0.191045
