18 
6i0p_ligand_dft.xyz
 O   -0.693049    2.903010    0.215760
 C   -1.179101    1.772649   -0.283954
 O   -2.302483    1.640021   -0.714426
 C   -0.191861    0.630375   -0.286760
 N    1.038958    0.881083   -0.070564
 C    1.974237   -0.176615   -0.099778
 S    3.494651    0.096721    0.431416
 C    1.545112   -1.486225   -0.597088
 C    0.256436   -1.751750   -0.830866
 C   -0.796348   -0.707994   -0.618975
 C   -1.761732   -1.134789    0.486768
 O   -1.861787   -0.603702    1.561366
 O   -2.473362   -2.206811    0.109413
 H   -1.408500    3.557328    0.164584
 H    2.314056   -2.238111   -0.732460
 H   -0.071310   -2.732051   -1.162428
 H   -1.405240   -0.598204   -1.526382
 H   -3.051149   -2.438114    0.854983
