30 
6i62_ligand_ani.xyz
 C  -10.483226  -10.726723   51.086759
 C   -9.902190  -10.356296   52.288822
 C  -10.525952  -10.697800   53.489224
 O   -9.917562  -10.313756   54.644527
 C  -11.726942  -11.404201   53.467086
 C  -12.296340  -11.763561   52.252036
 C  -11.681142  -11.444524   51.044666
 C  -12.292228  -11.821995   49.703386
 C  -11.882561  -13.243940   49.201665
Cl  -12.694997  -13.605310   47.662120
Cl  -10.122036  -13.262554   48.891204
Cl  -12.236098  -14.546154   50.364676
 C  -13.776018  -11.493994   49.656407
 C  -14.112595  -10.160557   49.408256
 C  -15.427083   -9.722022   49.398925
 C  -16.451270  -10.634393   49.651816
 O  -17.729360  -10.166189   49.634713
 C  -16.138500  -11.966949   49.907914
 C  -14.812524  -12.389215   49.913108
 H   -9.989429  -10.456409   50.155237
 H   -8.968880   -9.801871   52.317935
 H  -10.448397  -10.610045   55.394595
 H  -12.223518  -11.669589   54.398603
 H  -13.241876  -12.304093   52.246689
 H  -11.825268  -11.171647   48.955766
 H  -13.317603   -9.441951   49.216141
 H  -15.679792   -8.684582   49.199767
 H  -18.334265  -10.894737   49.823352
 H  -16.933624  -12.683422   50.106653
 H  -14.602723  -13.436520   50.112952
