33 
6i63_ligand_xtb.xyz
 O    4.605827   -1.842046   -0.134440
 C    3.492110   -1.056896   -0.112536
 C    3.435136   -0.009897    0.798104
 C    2.320335    0.805618    0.852316
 C    2.417567   -1.269541   -0.967183
 C    1.309366   -0.448307   -0.903117
 C    1.236539    0.599695    0.008990
 C   -0.000576    1.483652    0.000952
 C    0.102242    2.387895   -1.235734
 C   -0.108062    2.377159    1.245233
 C   -1.234574    0.595266   -0.012507
 C   -2.322932    0.807652   -0.848198
 C   -3.438169   -0.007143   -0.793203
 C   -1.302108   -0.460474    0.890890
 C   -2.411005   -1.280724    0.956446
 C   -3.491559   -1.059432    0.111627
 O   -4.607535   -1.841138    0.137823
 H    4.509430   -2.522233   -0.811529
 H    4.273389    0.150882    1.457520
 H    2.310734    1.609408    1.570772
 H    2.450821   -2.081447   -1.682658
 H    0.478673   -0.632425   -1.568956
 H    1.057755    2.908908   -1.219963
 H    0.050190    1.803372   -2.150866
 H   -0.689759    3.132935   -1.241209
 H   -0.054334    1.785032    2.155437
 H    0.680483    3.125890    1.257407
 H   -1.065889    2.893936    1.233171
 H   -2.316640    1.616268   -1.561297
 H   -4.280434    0.159688   -1.445829
 H   -0.467199   -0.650912    1.549620
 H   -2.440465   -2.097783    1.666071
 H   -4.508950   -2.523178    0.812763
