30 
6i64_ligand_ani.xyz
 C   47.873342  -29.831230  -96.101727
 C   46.993394  -25.479797  -96.668295
 C   48.967659  -25.433964  -95.283702
 C   49.561613  -28.691870 -100.645789
 C   47.575690  -30.037197 -100.423791
 C   47.300891  -26.776468  -97.051494
 C   49.259538  -26.735421  -95.679695
 C   49.594759  -28.537671  -99.268575
 C   47.629764  -29.876233  -99.042171
 C   47.828836  -24.802493  -95.779571
 C   48.543487  -29.444794 -101.230227
 C   48.437763  -27.428256  -96.567744
 C   48.634213  -29.122544  -98.437086
 C   48.735194  -28.878051  -96.936743
 O   47.479422  -23.531446  -95.436454
 O   48.549843  -29.565455 -102.587013
 H   48.095211  -29.710007  -95.036654
 H   46.806969  -29.618980  -96.242135
 H   48.060225  -30.875760  -96.373977
 H   46.110400  -24.973585  -97.045861
 H   49.626834  -24.912251  -94.590913
 H   50.313256  -28.237293 -101.284744
 H   46.777810  -30.630102 -100.868614
 H   46.647198  -27.293671  -97.753798
 H   50.154551  -27.215299  -95.287844
 H   50.391024  -27.944815  -98.821751
 H   46.868697  -30.362473  -98.436578
 H   49.785889  -29.054490  -96.663688
 H   48.134872  -23.178560  -94.821545
 H   47.797660  -30.106827 -102.857820
