22 
6i65_ligand_xtb.xyz
 C    2.702238   -0.219827   -1.262337
 C    2.712531   -0.217794    1.256092
 C   -1.619363    1.206814    0.000626
 C   -1.370949   -1.178161    0.002984
 C   -0.244899    1.338786    0.001831
 C    0.003397   -1.030660    0.004203
 C   -2.193539   -0.058924    0.000505
 C    0.590090    0.227986    0.003183
 C    2.090481    0.393959   -0.000899
 O   -3.553005   -0.156432   -0.002249
 H    2.540099   -1.294512   -1.286857
 H    2.251297    0.215519   -2.151418
 H    3.773708   -0.033850   -1.290555
 H    2.275982    0.225714    2.148389
 H    2.542299   -1.291014    1.288669
 H    3.785809   -0.040304    1.269861
 H   -2.264808    2.070615   -0.000967
 H   -1.810330   -2.167941    0.003207
 H    0.187518    2.329327    0.001352
 H    0.621170   -1.916356    0.005716
 H    2.312749    1.466979   -0.002671
 H   -3.811383   -1.085789   -0.003858
