25 
6i66_ligand_xtb.xyz
 C   -2.302437    1.963268   -0.392753
 C   -2.613524    0.480180   -0.550692
 C   -1.835459   -0.381337    0.453374
 C   -2.248230   -1.851200    0.341489
 C   -0.345807   -0.232340    0.265829
 C    0.451003    0.262330    1.291422
 C    1.815784    0.405266    1.138418
 C    2.418791    0.051094   -0.062797
 O    3.767545    0.205897   -0.183707
 C    1.634996   -0.446104   -1.095901
 C    0.270012   -0.585054   -0.927863
 H   -2.560974    2.303261    0.607840
 H   -2.869217    2.550610   -1.111676
 H   -1.242571    2.148502   -0.552902
 H   -3.683096    0.315496   -0.400302
 H   -2.370302    0.165479   -1.567129
 H   -2.087541   -0.033048    1.461381
 H   -2.055484   -2.232002   -0.658401
 H   -1.688160   -2.455249    1.051967
 H   -3.309766   -1.963142    0.552064
 H   -0.004509    0.543269    2.230292
 H    2.431671    0.789863    1.935744
 H    4.049191   -0.078143   -1.061448
 H    2.097089   -0.724586   -2.034794
 H   -0.317471   -0.974113   -1.746139
