25 
6i66_ligand_ani.xyz
 C   -2.276799    2.002796   -0.303295
 C   -2.633232    0.531357   -0.496188
 C   -1.847225   -0.409580    0.434655
 C   -2.295075   -1.863432    0.241176
 C   -0.347361   -0.256497    0.254896
 C    0.465997    0.158378    1.313558
 C    1.837891    0.310773    1.166841
 C    2.431530    0.046023   -0.066241
 O    3.780709    0.207596   -0.165556
 C    1.641016   -0.367960   -1.137452
 C    0.268015   -0.514148   -0.970167
 H   -2.480076    2.325444    0.725059
 H   -2.854258    2.643753   -0.977738
 H   -1.211501    2.171545   -0.500623
 H   -3.707065    0.375747   -0.323716
 H   -2.445246    0.239518   -1.538303
 H   -2.079128   -0.117353    1.468885
 H   -2.033163   -2.222254   -0.761058
 H   -1.817884   -2.528342    0.968419
 H   -3.381585   -1.954620    0.355378
 H    0.006876    0.366591    2.279292
 H    2.462322    0.634261    1.994752
 H    4.057317   -0.006341   -1.065538
 H    2.096429   -0.576384   -2.104435
 H   -0.327248   -0.838606   -1.822610
