23 
6i67_ligand_ani.xyz
 C  -17.321017   -6.700735  -24.997431
 C  -17.812007   -5.442236  -25.318038
 C  -15.439029   -6.290689  -26.440517
 C  -16.723823   -2.274082  -27.159781
 C  -15.942199   -2.976242  -28.267121
 C  -17.739672   -3.239776  -26.549242
 C  -15.127340   -4.128221  -27.679402
 C  -16.123057   -7.129385  -25.567113
 C  -17.142349   -4.588754  -26.195237
 C  -15.933408   -5.025588  -26.756220
 O  -15.578655   -8.351120  -25.303924
 H  -17.866791   -7.345338  -24.309614
 H  -18.749128   -5.112483  -24.872606
 H  -14.503785   -6.641939  -26.871170
 H  -16.025485   -1.935021  -26.382022
 H  -17.234102   -1.381913  -27.541630
 H  -15.279780   -2.274556  -28.787829
 H  -16.645304   -3.366901  -29.015975
 H  -18.206024   -2.797471  -25.660220
 H  -18.556915   -3.400342  -27.268348
 H  -14.679392   -4.731372  -28.478427
 H  -14.283987   -3.715118  -27.106316
 H  -16.151751   -8.822718  -24.686819
