53 
6i75_ligand_dft.xyz
 C   -3.513476    3.064600    1.169484
 C    3.070824    0.552262    0.161563
 C    6.121877   -1.569281    0.874476
 C   -8.974441   -1.784163    0.789783
 C   -7.609283   -1.579103    0.184649
 C   -6.651392   -2.594393    0.210700
 C   -5.398765   -2.416276   -0.368001
 C   -5.083364   -1.207034   -0.985169
 C   -2.659127   -0.146661   -0.288148
 C   -2.666249    1.810778    1.019176
 C   -1.179022    2.076749    0.790949
 C   -0.491890    0.710228    0.586234
 C    1.897502   -0.101756    0.472991
 C    4.438159    0.026370    0.101659
 C    4.837612   -1.048315    0.900526
 C    7.081162   -1.017226    0.029562
 C    6.697125    0.052212   -0.774237
 C    5.409275    0.562196   -0.748969
 C   -1.145411   -0.070890   -0.556743
 C   -6.034082   -0.184868   -1.025767
 C   -7.280437   -0.372758   -0.440757
 F    3.957556   -1.617271    1.732242
 F    6.442086   -2.595516    1.661235
 F    7.623687    0.574464   -1.597791
 F    5.123668    1.564131   -1.572038
 N    0.947809    0.848558    0.377249
 N    2.773018    1.856324   -0.100562
 N    1.498246    2.026332    0.027060
 O   -3.216611    1.122731   -0.098072
 O   -4.853246    2.721038    1.437947
 O   -1.057651    2.917785   -0.322360
 O    8.328050   -1.525103    0.007953
 O   -0.566852   -1.355910   -0.556810
 S   -3.475029   -0.939904   -1.708767
 H   -3.413055    3.667708    0.258731
 H   -3.154539    3.655133    2.017466
 H   -9.694791   -2.098461    0.025273
 H   -9.354111   -0.861088    1.238246
 H   -8.956690   -2.556768    1.563817
 H   -6.885826   -3.539847    0.693096
 H   -4.662204   -3.213270   -0.336655
 H   -2.825096   -0.779117    0.598876
 H   -2.789049    1.193487    1.924779
 H   -0.759060    2.538688    1.698468
 H   -0.614491    0.121976    1.503569
 H    1.667169   -1.122995    0.721729
 H   -0.968403    0.466392   -1.498237
 H   -5.789010    0.752861   -1.514470
 H   -8.012299    0.430473   -0.471292
 H   -5.111382    2.093030    0.749121
 H   -0.106924    3.096951   -0.422263
 H    8.848808   -1.019269   -0.631270
 H   -0.944170   -1.858521   -1.290788
