53 
6i75_ligand_xtb.xyz
 C   -3.573214    2.760763    1.237910
 C    3.047271    0.491722    0.115676
 C    6.189557   -1.444466    0.878707
 C   -8.927551   -1.146943    0.869378
 C   -7.582647   -1.166729    0.212477
 C   -6.776356   -2.296914    0.259274
 C   -5.533785   -2.309471   -0.349873
 C   -5.095265   -1.180432   -1.017429
 C   -2.619908   -0.402756   -0.297153
 C   -2.717258    1.498570    1.079565
 C   -1.232227    1.828703    0.843950
 C   -0.491850    0.498272    0.585940
 C    1.905574   -0.185280    0.520992
 C    4.429895    0.046642    0.085862
 C    4.871682   -1.014954    0.878774
 C    7.142804   -0.820575    0.069713
 C    6.700433    0.238256   -0.725214
 C    5.383448    0.668958   -0.724636
 C   -1.132636   -0.209406   -0.620305
 C   -5.888478   -0.047382   -1.091039
 C   -7.123127   -0.044436   -0.470697
 F    4.003437   -1.642297    1.686158
 F    6.557636   -2.465433    1.662314
 F    7.619534    0.838737   -1.513945
 F    5.042015    1.672328   -1.530191
 N    0.913456    0.707545    0.355942
 N    2.666820    1.735571   -0.260770
 N    1.408974    1.851062   -0.117597
 O   -3.260133    0.802867   -0.026254
 O   -4.910656    2.437800    1.496572
 O   -1.147697    2.707915   -0.233988
 O    8.417960   -1.238074    0.071672
 O   -0.470288   -1.429962   -0.809204
 S   -3.462022   -1.147240   -1.741444
 H   -3.470736    3.353313    0.321572
 H   -3.217667    3.343260    2.089218
 H   -9.712126   -1.132964    0.112992
 H   -9.039933   -0.253430    1.480801
 H   -9.070252   -2.023305    1.496175
 H   -7.119455   -3.178083    0.781718
 H   -4.907456   -3.187624   -0.307949
 H   -2.722384   -1.104542    0.550347
 H   -2.807031    0.870269    1.982205
 H   -0.820753    2.286814    1.759367
 H   -0.588365   -0.157467    1.459577
 H    1.735503   -1.180491    0.867325
 H   -1.046909    0.441201   -1.504079
 H   -5.530488    0.819267   -1.624939
 H   -7.742233    0.839837   -0.516073
 H   -5.212272    1.857289    0.785851
 H   -0.204394    2.867660   -0.423708
 H    8.945957   -0.703548   -0.539340
 H   -0.896672   -1.908110   -1.531624
