54 
6i76_ligand_xtb.xyz
 N    0.448646    0.762185    0.373435
 N    8.957742   -0.784839   -0.338022
 C   -5.932831   -2.371974   -0.379601
 C   -7.561318   -0.134666   -0.495278
 C   -6.325516   -0.113662   -1.113215
 C   -5.512646   -1.232683   -1.041652
 C   -3.060625   -0.400443   -0.310026
 C   -4.076116    2.759891    1.193163
 C    1.453146   -0.102652    0.597089
 C    3.976009    0.146640    0.173411
 C    5.748732   -1.263096    1.066603
 C    4.922804    0.724328   -0.679677
 C   -1.572709   -0.188610   -0.617745
 C   -9.349613   -1.275523    0.834968
 C   -1.717601    1.860426    0.827217
 C   -0.956327    0.538146    0.589765
 C    2.588360    0.571907    0.168377
 C    4.427405   -0.852997    1.040086
 C    6.696151   -0.684563    0.213287
 C    6.246423    0.317045   -0.659359
 C   -8.002366   -1.267229    0.182823
 C   -7.176714   -2.383602    0.226672
 C   -3.199851    1.509650    1.051489
 F    3.564539   -1.430766    1.889079
 F    6.136038   -2.221906    1.916294
 F    7.139984    0.879225   -1.492538
 F    4.562892    1.664164   -1.550799
 N    7.985790   -1.115914    0.269287
 N    9.979159   -0.642371   -0.772307
 N    2.191287    1.787659   -0.277388
 N    0.930648    1.887988   -0.153924
 O   -3.720763    0.797826   -0.054443
 O   -5.408153    2.419172    1.456312
 O   -1.636794    2.730207   -0.258355
 O   -0.890324   -1.401040   -0.787332
 S   -3.876824   -1.166915   -1.757613
 H   -5.290887   -3.239012   -0.339417
 H   -8.195655    0.738890   -0.538456
 H   -5.981667    0.761094   -1.643364
 H   -3.162604   -1.097828    0.541269
 H   -3.982518    3.342211    0.269364
 H   -3.729875    3.358793    2.036885
 H    1.296885   -1.081213    0.994108
 H   -1.485031    0.455217   -1.506189
 H   -9.457117   -2.128007    1.500466
 H  -10.129829   -1.332174    0.075925
 H   -9.504861   -0.360746    1.403507
 H   -1.321877    2.333427    1.742239
 H   -1.053808   -0.110888    1.468089
 H   -7.505491   -3.272549    0.745151
 H   -3.288863    0.886911    1.958078
 H   -5.703617    1.830206    0.750091
 H   -0.695239    2.892390   -0.453202
 H   -1.303244   -1.892803   -1.508452
