54 
6i76_ligand_ani.xyz
 N    0.517206    0.843529    0.370281
 N    8.878310   -0.868857    0.414474
 C   -6.049099   -2.307362    0.104796
 C   -7.675042   -0.210725   -0.716163
 C   -6.367795   -0.293912   -1.176536
 C   -5.544248   -1.343737   -0.765762
 C   -3.058445   -0.406192   -0.065311
 C   -4.016287    2.949060    0.961432
 C    1.511970   -0.061773    0.492465
 C    4.026775    0.158190   -0.020113
 C    5.708342   -1.576128    0.297137
 C    5.056445    0.968171   -0.525670
 C   -1.568324   -0.282963   -0.397884
 C   -9.614897   -1.076089    0.653432
 C   -1.650058    1.994698    0.673990
 C   -0.908720    0.645919    0.630654
 C    2.637758    0.617471    0.070544
 C    4.402744   -1.125616    0.387506
 C    6.713761   -0.766834   -0.206084
 C    6.364418    0.515586   -0.612377
 C   -8.193695   -1.170030    0.159314
 C   -7.360812   -2.214025    0.559046
 C   -3.124235    1.718264    0.964592
 F    3.498181   -1.980246    0.889503
 F    6.015559   -2.804213    0.700512
 F    7.291701    1.327630   -1.113359
 F    4.821490    2.207478   -0.944083
 N    8.015618   -1.299903   -0.354849
 N    9.755446   -0.584400    1.073578
 N    2.256606    1.878130   -0.290806
 N    0.990001    1.999452   -0.106740
 O   -3.677049    0.856069   -0.032922
 O   -5.358654    2.552128    1.122352
 O   -1.567402    2.675341   -0.552528
 O   -0.935779   -1.538212   -0.304307
 S   -3.864408   -1.435671   -1.336965
 H   -5.418027   -3.130230    0.431611
 H   -8.307510    0.612103   -1.041543
 H   -5.975118    0.473709   -1.839839
 H   -3.169545   -0.908774    0.907298
 H   -3.857128    3.504807    0.025708
 H   -3.758069    3.606621    1.799923
 H    1.338472   -1.071990    0.831522
 H   -1.459054    0.156484   -1.398686
 H   -9.856318   -1.895392    1.336479
 H  -10.326787   -1.114425   -0.179303
 H   -9.786926   -0.134135    1.186995
 H   -1.234484    2.598205    1.498067
 H   -0.977845    0.158885    1.607735
 H   -7.745860   -2.971517    1.239234
 H   -3.216805    1.215501    1.943672
 H   -5.463048    1.791934    0.527913
 H   -0.627074    2.884931   -0.683392
 H   -1.295311   -2.091915   -1.011466
