54 
6i77_ligand_ani.xyz
 C   -3.544880    2.989592    0.919542
 C    3.082237    0.546788    0.141575
 C    6.115088   -1.686389    0.478576
 C   -9.193722   -1.025299    0.602435
 C   -7.771016   -1.124630    0.113690
 C   -7.239194   -0.157727   -0.745266
 C   -5.930277   -0.246344   -1.199984
 C   -5.117758   -1.308310   -0.798817
 C   -2.630167   -0.385581   -0.084020
 C   -2.673889    1.744075    0.937699
 C   -1.192231    1.995495    0.663571
 C   -0.473146    0.634678    0.635248
 C    1.937734   -0.110454    0.548474
 C    4.465856    0.065922    0.087975
 C    4.821142   -1.212370    0.530257
 C    7.161120   -0.910492   -0.023092
 C    6.818514    0.370151   -0.460291
 C    5.522296    0.845747   -0.408523
 C   -1.134043   -0.287116   -0.398549
 C   -5.635951   -2.280118    0.054810
 C   -6.949590   -2.181654    0.502668
 F    3.890254   -2.039302    1.033991
 F    6.397965   -2.923846    0.925426
 F    7.799110    1.157597   -0.939209
 F    5.310396    2.082896   -0.851643
 N    0.959446    0.807617    0.395740
 N    8.434313   -1.394399   -0.131341
 N    2.726786    1.808243   -0.243476
 N    1.458809    1.950352   -0.086378
 O   -3.229483    0.886420   -0.062651
 O   -4.895041    2.616401    1.072091
 O   -1.083114    2.669699   -0.564506
 O   -0.522134   -1.551520   -0.292244
 S   -3.435743   -1.406677   -1.362641
 H   -3.368704    3.536662   -0.018304
 H   -3.282398    3.648044    1.755881
 H   -9.901123   -1.028854   -0.234961
 H   -9.355957   -0.097455    1.162966
 H   -9.450394   -1.861178    1.259364
 H   -7.862567    0.675119   -1.062452
 H   -5.528436    0.525283   -1.853122
 H   -2.761436   -0.883544    0.888481
 H   -2.785742    1.247303    1.917874
 H   -0.776643    2.595590    1.490187
 H   -0.564083    0.152364    1.612868
 H    1.742143   -1.113999    0.895585
 H   -1.005213    0.146854   -1.399430
 H   -5.013641   -3.112942    0.373455
 H   -7.345332   -2.945831    1.169198
 H    9.169153   -0.714678   -0.248696
 H    8.663183   -2.200464    0.428636
 H   -5.007034    1.854227    0.481803
 H   -0.138096    2.864345   -0.683762
 H   -0.881356   -2.102577   -1.001617
