57 
6i78_ligand_xtb.xyz
 C   -2.908773   -0.441547   -0.299756
 C   -6.171728   -0.073140   -1.157118
 C   -5.377006   -1.201785   -1.042533
 C   -3.912407    2.701646    1.242492
 C   -0.797216    0.481440    0.601398
 C   -1.557408    1.800138    0.861717
 C   -7.409200   -0.051886   -0.542960
 C   -3.039473    1.451164    1.085489
 C    1.616118   -0.154691    0.569105
 C    9.295348   -0.576500   -0.502266
 C    6.889077   -0.715565    0.117140
 C    5.914312   -1.328646    0.926447
 C    4.593949   -0.935737    0.936763
 C    4.134143    0.114176    0.136872
 C    2.745695    0.536564    0.154765
 C   -7.869227   -1.151101    0.176665
 C   -9.211776   -1.105128    0.837087
 C   -7.061813   -2.277690    0.264125
 C   -5.816993   -2.308676   -0.340086
 C   -1.421742   -0.230362   -0.611087
 C    5.090642    0.735511   -0.669848
 C    6.418206    0.336814   -0.682781
 F    6.319896   -2.344230    1.726706
 F    3.740919   -1.575669    1.755106
 F    4.737330    1.733840   -1.481989
 F    7.264584    0.997005   -1.503131
 N    8.158804   -1.188459    0.140209
 N    0.605208    0.713818    0.379529
 N    1.079589    1.856210   -0.118082
 N    2.341624    1.763498   -0.250727
 O   -1.476895    2.687206   -0.210059
 O   -5.248930    2.360531    1.484711
 O   -3.565939    0.754585   -0.027737
 O   -0.746272   -1.444155   -0.797265
 S   -3.737169   -1.186855   -1.751938
 H   -3.009051   -1.148656    0.543740
 H   -5.812104    0.776672   -1.716427
 H   -3.808000    3.300760    0.330693
 H   -3.572887    3.283533    2.100687
 H   -0.888604   -0.179282    1.471816
 H   -1.157639    2.258388    1.782625
 H   -8.029778    0.829219   -0.620199
 H   -3.128501    0.817125    1.984240
 H    1.464937   -1.144241    0.939511
 H    9.475269    0.436211   -0.130945
 H    9.144223   -0.525552   -1.580702
 H   10.172870   -1.185533   -0.302455
 H   -9.994539   -0.973511    0.091037
 H   -9.264644   -0.262802    1.525265
 H   -9.408471   -2.020466    1.388907
 H   -7.405090   -3.141414    0.814977
 H   -5.189543   -3.184155   -0.266655
 H   -1.335347    0.422928   -1.492623
 H    8.346935   -1.881363    0.847091
 H   -0.532763    2.840384   -0.406201
 H   -5.534145    1.779461    0.767575
 H   -1.151625   -1.917333   -1.534647
