114 
6i8b_ligand_xtb.xyz
 N   10.843059   -1.475860   -0.866069
 N   -5.883191   -0.723624    1.407685
 C    9.555833   -1.030136   -0.749804
 C    8.389197   -1.598428   -1.235311
 C    7.198521   -0.932846   -0.989450
 C    5.784937   -2.771651   -1.662146
 C    4.278984   -3.039702   -1.675540
 C    3.494613   -0.785598    1.289417
 C   -0.071393    0.196013    2.253272
 C   -2.428305    1.178561   -0.342509
 C   -4.793636    0.892900    0.463767
 C   -6.937848   -2.796806    0.784021
 C   -8.898900   -3.513383   -0.419329
 C   -9.545015   -2.645098   -1.507807
 C   -9.020763   -0.211009   -1.170086
 C   -8.081141    2.532672   -2.160317
 C   -7.529705    4.342032   -0.623205
 N   12.971445   -0.879426   -0.273535
 C   11.132162    0.546918    1.884775
 O    5.966048   -1.379971   -1.446991
 C   10.941890    0.528979    0.365238
 C    2.050099   -0.393931    1.364916
 C    1.232087   -0.208581    2.463465
 C   -0.567922    0.415667    0.963566
 C   -3.779477    1.839832   -0.073606
 C   -4.632526   -0.306118    1.135235
 C   -6.318446   -1.977677    1.951174
 C   11.375209    1.861653   -0.252285
 C  -10.067157   -1.313935   -0.932341
 C   -9.395002    1.137074   -0.560604
 C   -7.476712    3.945283   -2.105256
 C   -8.603367    3.425833   -0.057365
 C   11.739850   -0.628591   -0.254665
 C  -10.415853   -1.539814    0.541011
 C   -9.170686   -1.871582    1.371200
 C    0.257376    0.210372   -0.143920
 C    1.559976   -0.187919    0.083669
 C    2.655007   -0.440403   -0.911197
 C    7.162313    0.263074   -0.259119
 C    5.854266    2.204847    0.238791
 C    4.480346    2.734959   -0.089398
 C    4.052728    4.050309    0.488307
 C    3.402047    2.785078    0.953845
 C    8.344730    0.813328    0.227038
 C    9.532636    0.165545   -0.021995
 C    3.623844   -2.644919   -0.353321
 N    3.688524   -1.178965   -0.133489
 N   -8.260464   -2.698475    0.598852
 N   -8.336532    2.148568   -0.752033
 N   -6.757740    0.139927    0.943291
 N   -6.121330    1.114393    0.370648
 O   -1.859571    0.820179    0.902735
 O   -6.194341   -3.440016    0.072163
 O    5.903240    0.812759   -0.060430
 H   11.146121   -2.300386   -1.356475
 H    8.413604   -2.512997   -1.804020
 H    6.221622   -3.068842   -2.622020
 H    6.273473   -3.342605   -0.862790
 H    3.833305   -2.494613   -2.508037
 H    4.116485   -4.103371   -1.846106
 H    4.141201    0.071282    1.496918
 H    3.760406   -1.598941    1.964218
 H   -0.736363    0.360405    3.085171
 H   -2.555887    0.288123   -0.973442
 H   -1.780524    1.895208   -0.862526
 H   -9.652655   -4.135364    0.070982
 H   -8.140195   -4.166934   -0.850040
 H   -8.821706   -2.445613   -2.298208
 H  -10.364516   -3.210115   -1.949636
 H   -8.905954   -0.101962   -2.249776
 H   -8.066431   -0.531904   -0.756496
 H   -9.029116    2.535862   -2.700974
 H   -7.414272    1.810809   -2.628386
 H   -7.770901    5.392092   -0.484955
 H   -6.576744    4.141067   -0.134139
 H   13.564982   -0.207820    0.198085
 H   10.808071   -0.395753    2.320918
 H   12.181089    0.696086    2.129258
 H   10.556156    1.355199    2.328844
 H    1.598902   -0.366304    3.464616
 H   -4.152964    2.281581   -0.999164
 H   -3.629792    2.645902    0.650660
 H   -3.757601   -0.847547    1.419569
 H   -5.446502   -2.528479    2.306095
 H   -7.017627   -1.817366    2.771107
 H   11.218379    1.851461   -1.328827
 H   12.430617    2.039013   -0.059942
 H   10.803840    2.681096    0.177070
 H  -10.982669   -1.029097   -1.458498
 H   -9.537997    1.030450    0.514608
 H  -10.322249    1.511642   -1.003357
 H   -8.065429    4.632006   -2.709677
 H   -6.458032    3.964451   -2.484647
 H   -9.602183    3.777978   -0.324130
 H   -8.540377    3.295793    1.021609
 H  -10.910075   -0.669961    0.972408
 H  -11.128918   -2.362865    0.588468
 H   -8.666685   -0.943819    1.644759
 H   -9.474313   -2.395490    2.286286
 H   -0.095573    0.358160   -1.151562
 H    2.329467   -1.016753   -1.776469
 H    3.083588    0.503436   -1.257325
 H    6.077668    2.367459    1.301335
 H    6.602114    2.733300   -0.364526
 H    4.185640    2.532591   -1.112610
 H    4.729369    4.551656    1.161891
 H    3.489513    4.723201   -0.138031
 H    2.381896    2.588611    0.659789
 H    3.634445    2.442341    1.951003
 H    8.335737    1.726738    0.798366
 H    4.159410   -3.137524    0.461268
 H    2.578446   -2.960395   -0.318078
 H    4.644649   -0.892520   -0.469708
 H   -7.414141    1.774141   -0.340766
