114 
6i8b_ligand_dft.xyz
 N   10.620445   -1.661193   -1.029168
 N   -5.872460   -0.227948    1.810669
 C    9.351362   -1.141489   -0.882059
 C    8.151540   -1.607297   -1.408576
 C    6.998009   -0.886673   -1.108518
 C    5.478874   -2.602377   -1.846913
 C    3.968386   -2.771212   -1.751546
 C    3.308528   -0.587683    1.368312
 C   -0.181212    0.632264    2.372945
 C   -2.525583    1.671111   -0.218474
 C   -4.864326    1.314422    0.683606
 C   -6.325248   -2.554278    1.343913
 C   -7.668556   -3.915162   -0.155873
 C   -8.185759   -3.296019   -1.466014
 C   -8.452541   -0.784132   -1.355518
 C   -8.235194    2.109024   -2.515205
 C   -8.875482    4.116177   -1.343067
 N   12.804762   -1.219763   -0.381752
 C   11.024833    0.166833    1.858653
 O    5.750758   -1.234913   -1.572370
 C   10.838787    0.257646    0.336740
 C    1.887861   -0.112877    1.438724
 C    1.095988    0.129880    2.557359
 C   -0.674598    0.887644    1.083872
 C   -3.900546    2.266794    0.045619
 C   -4.641676    0.236501    1.512144
 C   -6.235208   -1.484641    2.450503
 C   11.358013    1.601230   -0.196473
 C   -9.182035   -2.136060   -1.203576
 C   -9.287955    0.418123   -0.936256
 C   -7.861944    3.577971   -2.370915
 C   -9.296021    2.891341   -0.509236
 C   11.577017   -0.907296   -0.356927
 C   -9.838720   -2.352042    0.168450
 C   -8.816257   -2.286579    1.312501
 C    0.117046    0.642047   -0.040881
 C    1.400029    0.146636    0.169622
 C    2.464294   -0.117906   -0.856424
 C    7.031933    0.258570   -0.305668
 C    5.848220    2.276201    0.185789
 C    4.506657    2.877803   -0.110493
 C    4.143851    4.172337    0.566343
 C    3.414455    2.914116    0.935285
 C    8.248435    0.701943    0.215924
 C    9.403566    0.001322   -0.078038
 C    3.418801   -2.391589   -0.377974
 N    3.497174   -0.914998   -0.095404
 N   -7.554110   -2.905265    0.894820
 N   -8.562951    1.715799   -1.108368
 N   -6.812909    0.491656    1.211275
 N   -6.210400    1.426968    0.524746
 O   -1.939103    1.373582    1.038909
 O   -5.274555   -2.991099    0.898607
 O    5.815758    0.867583   -0.064557
 H   10.876997   -2.466058   -1.579072
 H    8.117317   -2.482572   -2.047908
 H    5.835788   -2.871638   -2.847207
 H    5.988717   -3.239666   -1.112264
 H    3.481705   -2.199077   -2.548728
 H    3.718782   -3.822628   -1.926576
 H    4.036477    0.191028    1.609258
 H    3.526751   -1.473283    1.968178
 H   -0.824822    0.842777    3.220143
 H   -2.602922    0.756299   -0.822079
 H   -1.907671    2.399425   -0.758569
 H   -8.353278   -4.692775    0.200262
 H   -6.688853   -4.370357   -0.290514
 H   -7.339469   -2.932131   -2.058703
 H   -8.667233   -4.083293   -2.053911
 H   -8.159999   -0.687091   -2.407728
 H   -7.530951   -0.793863   -0.764942
 H   -9.136310    1.965475   -3.119147
 H   -7.437108    1.470586   -2.895097
 H   -9.747364    4.540450   -1.845766
 H   -8.443409    4.898897   -0.717977
 H   13.363583   -0.562801    0.161112
 H   10.655347   -0.786175    2.248398
 H   12.084241    0.256981    2.120046
 H   10.485509    0.979567    2.357120
 H    1.464327   -0.060521    3.560508
 H   -4.319042    2.609632   -0.906742
 H   -3.780406    3.154222    0.677451
 H   -3.741001   -0.216695    1.891069
 H   -5.423312   -1.775173    3.116500
 H   -7.137872   -1.323681    3.037525
 H   11.221573    1.678422   -1.278910
 H   12.424471    1.715285    0.023531
 H   10.826035    2.431447    0.280530
 H   -9.973926   -2.170014   -1.960368
 H   -9.540367    0.365728    0.125048
 H  -10.217206    0.493203   -1.511261
 H   -7.907470    4.103000   -3.326323
 H   -6.839798    3.663669   -1.987481
 H  -10.365703    2.685560   -0.582724
 H   -9.018387    2.946553    0.544495
 H  -10.632469   -1.623625    0.365006
 H  -10.332934   -3.328923    0.158158
 H   -8.632043   -1.239715    1.560818
 H   -9.216889   -2.784384    2.204336
 H   -0.244110    0.829726   -1.045625
 H    2.132196   -0.684828   -1.727429
 H    2.948807    0.801468   -1.195140
 H    6.122950    2.458288    1.234154
 H    6.615348    2.728533   -0.453568
 H    4.199023    2.781035   -1.149879
 H    4.845204    4.580987    1.287964
 H    3.622646    4.920902   -0.020100
 H    2.383496    2.803638    0.613045
 H    3.622740    2.483898    1.911568
 H    8.289822    1.582180    0.849888
 H    4.003269   -2.888535    0.400785
 H    2.370995   -2.679868   -0.256586
 H    4.436020   -0.590314   -0.392690
 H   -7.653285    1.657063   -0.598401
