56 
6i8m_ligand_ani.xyz
 C   -1.212923   -0.287957    0.478109
 C   -2.452880    0.382399    0.003583
 C   -2.672778   -1.959225   -0.363594
 C   -3.331498   -0.602091   -0.436905
 C   -2.817592    1.733071   -0.007549
 C   -0.246419   -2.578659    0.073126
 C    0.686454   -2.628569    1.305158
 N   -1.366450   -1.628435    0.221435
 C    0.567882   -2.353278   -1.213803
 C    2.109210   -2.158340    0.978733
 C    1.483819   -1.127006   -1.164371
 C    2.910620    1.357385   -0.318411
 C   -1.838147    2.826582    0.317435
 C    4.078517    2.321884   -0.105818
 C    5.668619    0.349002   -0.072907
 C    5.377327    1.731243   -0.666616
 O   -0.234978    0.224377    1.017231
 C    3.212275   -0.007735    0.304166
 C   -4.617125   -0.278726   -0.840248
 C   -3.434038   -2.993966    0.463560
 C   -4.113768    2.050448   -0.405283
 C    4.491814   -0.608812   -0.279749
 N    2.013392   -0.890426    0.217143
 C   -5.005950    1.058689   -0.819180
 O   -0.710242    2.865859   -0.135106
 N   -2.343237    3.808952    1.126910
 H   -2.528855   -2.357718   -1.383610
 H   -0.724189   -3.557967   -0.030127
 H    0.271891   -1.997717    2.095145
 H    0.739165   -3.653812    1.690369
 H   -0.105048   -2.274033   -2.075662
 H    1.176186   -3.251489   -1.381586
 H    2.651453   -2.911943    0.393925
 H    2.673542   -1.982489    1.900579
 H    2.315747   -1.268490   -1.863105
 H    0.939882   -0.227211   -1.467810
 H    1.970574    1.750490    0.094771
 H    2.757429    1.230134   -1.400961
 H    4.199283    2.517855    0.969561
 H    3.862880    3.289247   -0.575008
 H    5.864041    0.452135    1.004411
 H    6.579952   -0.071297   -0.514416
 H    6.219091    2.410975   -0.485717
 H    5.281006    1.635783   -1.757938
 H    3.378015    0.145935    1.382154
 H   -5.308011   -1.053254   -1.164947
 H   -4.417912   -3.186574    0.022447
 H   -3.572129   -2.628359    1.485957
 H   -2.890704   -3.944535    0.505324
 H   -4.420396    3.092636   -0.409847
 H    4.698047   -1.579089    0.186278
 H    4.354529   -0.789790   -1.354549
 H    1.263855   -0.354162    0.706810
 H   -6.010346    1.336266   -1.124869
 H   -3.163279    3.632141    1.684955
 H   -1.680398    4.485778    1.475440
