29 
6ibk_ligand_ani.xyz
 O   -2.634678    0.428574    1.542805
 S   -2.466318   -0.054627    0.196327
 O   -3.599475   -0.435898   -0.606248
 N   -1.296713   -1.244505    0.156418
 C   -0.284809   -0.901157   -0.859214
 C   -0.202990    0.632020   -0.770119
 O   -1.593177    1.045688   -0.643917
 C    0.592605    1.120897    0.452127
 C    0.729232    2.638481    0.464740
 O    1.532712    3.031472   -0.647734
 C    1.946928    0.408330    0.583515
 O    2.794413    0.608910   -0.533650
 C    1.735188   -1.100126    0.668437
 O    2.960555   -1.788792    0.827002
 C    1.026300   -1.616737   -0.587250
 O    0.745643   -2.990562   -0.436264
 H   -1.688913   -2.180104    0.083140
 H   -0.644098   -1.192311   -1.857246
 H    0.175701    1.074331   -1.694954
 H    0.017030    0.850273    1.346065
 H    1.204101    2.944787    1.407629
 H   -0.263278    3.102886    0.403870
 H    1.742501    3.968685   -0.568451
 H    2.451729    0.752847    1.504480
 H    2.704288    1.539766   -0.800222
 H    1.118450   -1.341360    1.540858
 H    3.564914   -1.399860    0.175502
 H    1.699555   -1.445327   -1.443218
 H    1.553435   -3.374423   -0.062963
