50 
6ibl_ligand_ani.xyz
 C   -0.103267    3.796584   -0.319658
 C    0.746674    2.572498    0.024761
 C    1.641375    2.157657   -1.152280
 C    2.550028    0.991684   -0.840744
 C    3.623081    1.134577    0.036453
 C    4.456246    0.062124    0.351225
 C    4.213356   -1.188399   -0.214381
 C    3.135163   -1.352191   -1.089409
 C    2.319642   -0.273732   -1.392267
 O    4.961459   -2.299432    0.023372
 C    6.059761   -2.168348    0.899188
 N   -0.111131    1.424452    0.410248
 C   -0.884045    1.600627    1.661941
 C   -1.195838    0.227816    2.284130
 C   -2.356131   -0.438125    1.566377
 C   -2.126255   -0.897991    0.272880
 C   -3.175604   -1.043134   -0.615171
 C   -4.485763   -1.094483   -0.123691
 C   -4.720140   -0.797984    1.214318
 C   -3.659969   -0.427698    2.048491
 O   -5.472723   -1.411118   -1.017443
 N   -2.908688   -1.077624   -2.003818
 C   -1.936369   -0.312757   -2.558798
 O   -1.154781    0.392515   -1.938016
 O    0.016887   -0.512816    2.146487
 H   -0.685675    4.135118    0.543951
 H   -0.801135    3.557944   -1.133783
 H    0.526149    4.631006   -0.645978
 H    1.383338    2.821156    0.885482
 H    0.997336    1.905677   -2.000895
 H    2.245297    3.026345   -1.445145
 H    3.820755    2.105803    0.489718
 H    5.283735    0.214798    1.036033
 H    2.962554   -2.335962   -1.513902
 H    1.467477   -0.408658   -2.054655
 H    6.521465   -3.155163    0.954297
 H    5.738558   -1.859783    1.902917
 H    6.792268   -1.443911    0.519050
 H   -0.744963    1.207887   -0.387297
 H    0.477428    0.584984    0.582233
 H   -0.283524    2.184951    2.368714
 H   -1.806426    2.152810    1.472295
 H   -1.448790    0.354737    3.346460
 H   -1.119031   -1.093064   -0.076101
 H   -5.737561   -0.814935    1.603787
 H   -3.860230   -0.132492    3.076168
 H   -6.318873   -1.433327   -0.553371
 H   -3.621016   -1.473830   -2.602226
 H   -1.906027   -0.380967   -3.660541
 H   -0.162790   -1.424459    2.412390
