67 
6ibx_ligand_xtb.xyz
 C   -1.766234   -0.055813    3.638186
 C   -3.258732   -0.217890    3.364667
 C   -3.533936   -1.563384    2.705569
 N   -2.785209   -1.656404    1.439784
 C   -3.144769   -2.840942    0.657191
 C   -1.333891   -1.564206    1.672345
 C   -0.939123   -0.252292    2.358244
 N   -1.002890    0.922500    1.487320
 C   -1.876837    1.247907    0.523407
 O   -2.826564    0.536745    0.171849
 C   -1.697242    2.586808   -0.088626
 C   -1.621545    3.721392    0.716677
 C   -1.666744    4.969685    0.117778
 N   -1.828359    5.128648   -1.185935
 C   -1.886119    4.072154   -1.958657
 C   -1.777863    2.753225   -1.484728
 N   -1.757419    1.690142   -2.349321
 C   -1.133688    0.473927   -2.103102
 C    0.062724    0.458006   -1.353414
 C   -1.647776   -0.701447   -2.601176
 C   -0.992086   -1.911993   -2.325933
 N   -1.521709   -3.066837   -2.790920
 C   -0.878895   -4.175143   -2.539176
 C    0.307624   -4.191084   -1.778593
 N    0.812652   -3.098374   -1.269826
 C    0.193535   -1.933338   -1.532909
 C    0.732689   -0.704047   -1.049626
 C    1.978037   -0.663541   -0.275303
 C    2.925276    0.311008   -0.564094
 C    4.096875    0.329240    0.176864
 N    5.191382    1.138983    0.080899
 C    5.374553    2.190251   -0.878975
 C    6.088899    0.759675    1.035665
 C    5.604576   -0.287497    1.763217
 C    4.326269   -0.593671    1.233699
 C    3.358033   -1.557908    1.514326
 C    2.211318   -1.590296    0.759029
 H   -1.566794    0.930445    4.056780
 H   -1.445795   -0.796462    4.372253
 H   -3.615460    0.584785    2.717106
 H   -3.813381   -0.157027    4.300352
 H   -4.598352   -1.666506    2.489279
 H   -3.229431   -2.383917    3.362462
 H   -2.983347   -0.740462    0.848438
 H   -4.217140   -2.847982    0.474811
 H   -2.869065   -3.751400    1.189928
 H   -2.635574   -2.820702   -0.304489
 H   -1.016581   -2.394713    2.309007
 H   -0.820257   -1.641856    0.711339
 H    0.118423   -0.348926    2.627366
 H   -0.282581    1.605503    1.670532
 H   -1.577305    3.630683    1.791877
 H   -1.598498    5.876328    0.699967
 H   -2.026052    4.259686   -3.014971
 H   -2.222933    1.803562   -3.237144
 H    0.477089    1.401634   -1.027925
 H   -2.543864   -0.722348   -3.199733
 H   -1.312248   -5.085846   -2.928429
 H    0.835059   -5.110836   -1.569840
 H    2.771091    1.001733   -1.379712
 H    6.363331    2.625919   -0.751910
 H    5.291031    1.799412   -1.895690
 H    4.625306    2.974769   -0.743510
 H    7.027994    1.270799    1.130224
 H    6.099269   -0.787551    2.570764
 H    3.518001   -2.274636    2.305461
 H    1.471856   -2.351377    0.951296
