64 
6iby_ligand_dft.xyz
 C   -5.416058   -0.751674    2.365006
 C   -6.014627    0.655446    2.466026
 N   -6.349076    1.002033    1.047959
 C   -7.190862    2.205224    0.864982
 C   -6.899879   -0.265145    0.479943
 C   -5.961141   -1.353554    1.030434
 N   -4.922892   -1.751486    0.094691
 C   -4.020532   -0.887836   -0.446815
 O   -4.102776    0.335582   -0.215824
 C   -2.962172   -1.465277   -1.292747
 C   -3.161134   -2.683601   -1.966024
 C   -2.142974   -3.230103   -2.716272
 N   -0.945381   -2.635211   -2.839830
 C   -0.744346   -1.484357   -2.232892
 C   -1.712224   -0.818066   -1.434482
 N   -1.443860    0.388327   -0.848943
 C   -0.172810    0.977092   -0.666851
 C    0.905041    0.201570   -0.171401
 C   -0.009231    2.317756   -0.906177
 C    1.246449    2.917975   -0.661828
 N    1.375505    4.254383   -0.897594
 C    2.555258    4.774142   -0.668232
 C    3.646259    4.001829   -0.193497
 N    3.546567    2.717549    0.041926
 C    2.339516    2.138906   -0.193982
 C    2.152657    0.738306    0.058143
 C    3.229780   -0.129171    0.594535
 C    4.504927   -0.121501    0.039966
 C    5.445864   -1.009360    0.558009
 N    6.756093   -1.203342    0.187762
 C    7.441538   -0.479186   -0.856866
 C    7.289225   -2.187566    0.988821
 C    6.354276   -2.643506    1.873704
 C    5.156064   -1.902755    1.617970
 C    3.867662   -1.887642    2.169462
 C    2.927547   -1.014694    1.656872
 H   -4.326539   -0.707721    2.330488
 H   -5.700302   -1.358492    3.225989
 H   -5.331014    1.405703    2.865752
 H   -6.948634    0.678932    3.034350
 H   -5.432302    1.093499    0.551775
 H   -6.683420    3.062389    1.309061
 H   -7.337693    2.376589   -0.201991
 H   -8.153943    2.048353    1.354694
 H   -7.915679   -0.386995    0.865572
 H   -6.921741   -0.205464   -0.608613
 H   -6.545183   -2.253607    1.224460
 H   -4.720843   -2.737869    0.031038
 H   -4.126859   -3.180433   -1.945874
 H   -2.279393   -4.162770   -3.254398
 H    0.226328   -1.020242   -2.381907
 H   -2.250410    0.939594   -0.593775
 H    0.744441   -0.853365    0.028527
 H   -0.810240    2.937557   -1.296150
 H    2.678543    5.839174   -0.851952
 H    4.608780    4.472402   -0.006070
 H    4.754169    0.554917   -0.769319
 H    7.472065    0.592100   -0.631935
 H    8.464917   -0.850036   -0.934926
 H    6.943351   -0.625491   -1.821073
 H    8.320044   -2.487226    0.855866
 H    6.502199   -3.412679    2.617655
 H    3.612651   -2.547685    2.993398
 H    1.935802   -0.981059    2.099306
