56 
6ic0_ligand_ani.xyz
 C  142.516576  -37.308559  266.096437
 C  142.751343  -36.076046  266.701948
 N  142.074424  -35.460921  267.732510
 C  140.943938  -36.014964  268.439827
 C  142.662313  -34.238908  267.971078
 C  143.708708  -34.041783  267.118024
 C  143.791301  -35.211706  266.286697
 C  144.624860  -35.630632  265.238673
 C  144.416002  -36.864749  264.657253
 C  143.370716  -37.724136  265.078265
 C  143.087152  -39.015663  264.395471
 C  141.804146  -39.265678  263.958128
 C  144.080973  -40.035197  264.185147
 N  145.356269  -39.872386  264.642708
 C  146.188801  -40.858879  264.441757
 C  145.811895  -42.050715  263.771846
 N  144.602850  -42.245466  263.318766
 C  143.707452  -41.236529  263.526377
 C  142.386805  -41.424356  263.062367
 C  141.443811  -40.442389  263.264259
 N  140.103527  -40.565600  262.881298
 C  139.565110  -41.251678  261.809872
 C  140.310798  -41.548782  260.658489
 N  139.827957  -42.179717  259.594017
 C  138.545321  -42.547090  259.621227
 C  137.712984  -42.295286  260.701397
 C  138.209334  -41.633404  261.822286
 C  137.328619  -41.302800  262.992710
 O  137.496516  -40.304254  263.685114
 N  136.346806  -42.226193  263.243257
 C  135.426933  -42.234502  264.307156
 C  134.721390  -43.404771  264.598479
 N  133.827156  -43.480639  265.577237
 C  133.624680  -42.364057  266.275573
 N  134.228757  -41.195942  266.086696
 C  135.130071  -41.129963  265.105809
 H  141.693599  -37.944067  266.419005
 H  140.645276  -35.316519  269.224445
 H  140.094210  -36.167390  267.765845
 H  141.205718  -36.971547  268.904315
 H  142.268651  -33.599999  268.752527
 H  144.352560  -33.174503  267.074699
 H  145.434286  -34.995736  264.888343
 H  145.072207  -37.188726  263.854237
 H  141.033536  -38.513467  264.118292
 H  147.208414  -40.740442  264.805038
 H  146.542867  -42.845064  263.620629
 H  142.161567  -42.366020  262.576256
 H  139.411262  -40.097704  263.458847
 H  141.351444  -41.235878  260.594992
 H  138.170447  -43.065538  258.742218
 H  136.665219  -42.580795  260.644227
 H  136.405701  -43.085926  262.717359
 H  134.883435  -44.318135  264.024139
 H  132.892384  -42.413313  267.078863
 H  135.631923  -40.180893  264.947568
