88 
6idb_ligand_ani.xyz
 C   -1.243463   -0.775572    1.084082
 C   -1.660983   -1.176808   -0.352426
 C   -2.563271   -2.416033   -0.393225
 C   -3.991648   -2.108751    0.042042
 C   -4.525821   -0.939963   -0.787951
 C   -3.614482    0.276368   -0.588199
 C   -4.063800    1.457996   -1.459674
 C   -3.112142    2.671647   -1.441514
 C   -2.882661    3.323956   -0.069440
 C   -6.366484   -0.363949    0.766936
 C   -7.871964   -0.336382    0.927163
 N   -5.914268   -0.637669   -0.493174
 O   -1.111757    0.382578    1.436803
 O   -0.964229   -1.790568    1.879972
 O   -4.848963   -3.210740   -0.203905
 O   -2.268586   -0.068863   -0.959963
 O   -4.215839    1.070368   -2.812247
 O   -1.908610    2.356644   -2.110821
 O   -1.775117    2.828222    0.646614
 O   -5.616697   -0.132496    1.703383
 C    3.605270   -1.368079   -0.124493
 C    4.371879   -2.677132   -0.247487
 C    3.943016   -3.427403   -1.496853
 C    2.432642   -3.648223   -1.473225
 C    1.702006   -2.324556   -1.234984
 C    0.222771   -2.558811   -0.970159
 O    5.767529   -2.466986   -0.346475
 O    4.550536   -4.705208   -1.537032
 O    2.104116   -4.534034   -0.426080
 O    2.224625   -1.644437   -0.098374
 O   -0.467231   -1.315052   -1.075938
 C    1.380239    2.479162    1.199391
 C    2.767033    2.808393    0.639001
 C    3.482527    1.496334    0.251249
 C    3.421039    0.488922    1.412542
 C    2.000877    0.371125    1.975343
 C    1.907656   -0.496420    3.222661
 C    3.454882    4.301781   -1.267774
 C    2.950266    5.407632   -2.167468
 N    2.519599    3.700986   -0.490747
 O    0.709130    3.654783    1.502750
 O    4.837325    1.654139   -0.036148
 O    3.980388   -0.779175    1.087037
 O    1.516911    1.663171    2.335026
 O    0.571020   -0.516386    3.702239
 O    4.648477    4.000378   -1.267189
 H   -2.145269   -3.215040    0.225785
 H   -2.601032   -2.769313   -1.429975
 H   -4.017628   -1.830441    1.104327
 H   -4.481514   -1.220482   -1.843221
 H   -3.651123    0.565690    0.473009
 H   -5.047838    1.782533   -1.102348
 H   -3.608446    3.419782   -2.071789
 H   -2.698692    4.391183   -0.232034
 H   -3.803238    3.241652    0.530102
 H   -8.170867   -1.147052    1.598614
 H   -8.414130   -0.435657   -0.017872
 H   -8.151417    0.605623    1.406587
 H   -6.591192   -1.001331   -1.145823
 H   -0.505620   -1.412947    2.679762
 H   -4.742883   -3.838786    0.520779
 H   -3.331995    1.176045   -3.203740
 H   -1.565279    1.558013   -1.670099
 H   -1.789359    1.856460    0.722195
 H    3.856259   -0.709121   -0.974622
 H    4.120055   -3.295017    0.625466
 H    4.219984   -2.841332   -2.388878
 H    2.114399   -4.059468   -2.447510
 H    1.807268   -1.682746   -2.125452
 H   -0.181575   -3.267483   -1.708013
 H    0.119078   -2.996129    0.029990
 H    6.029969   -1.981373    0.446802
 H    5.477291   -4.575931   -1.285063
 H    2.756295   -5.249774   -0.477099
 H    0.815046    1.918821    0.429085
 H    3.349540    3.314768    1.421724
 H    2.932217    1.097831   -0.624792
 H    4.065527    0.892469    2.202210
 H    1.336586   -0.047239    1.214835
 H    2.188536   -1.525795    2.984412
 H    2.585704   -0.124028    4.003560
 H    3.355013    5.248500   -3.170011
 H    3.345616    6.362296   -1.805640
 H    1.859737    5.472287   -2.222599
 H    1.622517    4.168611   -0.436474
 H   -0.247188    3.455309    1.471439
 H    4.945304    2.485110   -0.551120
 H    0.270508    0.408162    3.700515
