62 
6iez_ligand_ani.xyz
 C  -29.929628    6.703965   -7.345594
 C  -36.287539    3.620535   -5.373349
 C  -36.431916    2.093763   -5.172560
 C  -32.648001    0.168945   -5.074542
 C  -34.289434    1.509612   -3.975165
 C  -35.097966    1.388279   -5.110381
 C  -33.514050    0.113997   -6.160109
 C  -26.506224    5.328169   -6.575346
 N  -34.710967    0.703448   -6.194797
 C  -34.100487    4.456211   -6.262644
 C  -33.189007    4.778704   -7.267895
 C  -29.241814    6.085900   -6.306655
 C  -31.116868    4.665154   -5.871786
 O  -27.323963    7.822410   -6.691026
 S  -27.588573    6.606983   -5.923995
 O  -27.433702    6.571235   -4.473715
 C  -26.630135    5.110635   -8.071314
 O  -27.808531    4.365190   -8.296430
 C  -31.209548    6.273967   -7.659977
 C  -31.821334    5.246145   -6.932352
 C  -29.832275    5.077034   -5.553665
 C  -33.602857    4.636024   -8.594142
 C  -34.872216    4.161624   -8.881906
 C  -35.783200    3.834219   -7.871322
 C  -37.133576    3.281740   -8.281663
 C  -37.057500    1.860832   -8.859353
 C  -38.419560    1.306806   -9.270268
 C  -38.348522   -0.095131   -9.874516
 C  -39.718481   -0.635877  -10.277584
 C  -35.390943    4.005023   -6.533038
 C  -33.049728    0.884645   -3.954070
 H  -29.451635    7.506653   -7.900087
 H  -35.858667    4.047271   -4.458258
 H  -37.284675    4.066487   -5.477022
 H  -36.999288    1.914226   -4.250040
 H  -37.006902    1.659731   -5.995146
 H  -31.688771   -0.338176   -5.111410
 H  -34.645086    2.083604   -3.122495
 H  -33.234942   -0.435804   -7.056488
 H  -26.725056    4.404460   -6.032434
 H  -25.506909    5.678948   -6.296402
 H  -33.795062    4.583740   -5.226355
 H  -31.586209    3.869227   -5.299949
 H  -25.740976    4.558437   -8.409974
 H  -26.648207    6.083415   -8.580642
 H  -28.052301    4.442052   -9.225838
 H  -31.755692    6.757446   -8.466344
 H  -29.302164    4.638693   -4.712414
 H  -32.914344    4.867891   -9.403333
 H  -35.171236    4.042577   -9.922135
 H  -37.560950    3.942439   -9.049339
 H  -37.835434    3.303301   -7.439759
 H  -36.584193    1.193205   -8.126733
 H  -36.388371    1.867345   -9.731173
 H  -38.888403    1.989070   -9.996121
 H  -39.089270    1.288150   -8.396958
 H  -37.881415   -0.777113   -9.150315
 H  -37.687027   -0.077490  -10.751613
 H  -39.643216   -1.640270  -10.706970
 H  -40.389517   -0.690241   -9.412163
 H  -40.192873    0.013073  -11.023206
 H  -32.405663    0.959469   -3.079723
