60 
6if0_ligand_dft.xyz
 C    3.661541   -1.364632   -0.759200
 C   -3.295767    0.478322   -1.988210
 C   -3.378181    1.773617   -1.663039
 C   -1.267229    3.559575    1.521271
 C   -2.111616    3.700402   -0.711596
 C   -2.660878    2.424660   -0.543913
 C   -1.876514    2.309929    1.605269
 C    6.167874    0.077621    1.510969
 N   -2.558715    1.748101    0.609671
 C   -1.023674   -0.236940   -1.302614
 C   -0.117574   -1.130896   -0.734589
 C    3.998127   -0.072973   -0.369849
 C    1.681783    0.526192   -0.226332
 O    6.507204   -0.515565   -1.050344
 S    5.713331    0.386931   -0.216987
 O    5.794258    1.836648   -0.391424
 C    6.524335   -1.362821    1.812803
 O    5.340582   -2.132031    1.785611
 C    2.321707   -1.704194   -0.881698
 C    1.314959   -0.768443   -0.614764
 C    3.019137    0.880055   -0.107752
 C   -0.600901   -2.354421   -0.263422
 C   -1.956380   -2.646548   -0.339710
 C   -2.869921   -1.740528   -0.879636
 C   -4.350204   -2.020635   -0.817435
 C   -4.997282   -1.328945    0.393129
 C   -6.517113   -1.474107    0.419238
 C   -7.160729   -0.803843    1.633375
 C   -8.682404   -0.937244    1.649943
 C   -2.388049   -0.517061   -1.371765
 C   -1.397812    4.271466    0.333979
 H    4.444270   -2.082608   -0.974034
 H   -3.918987    0.124418   -2.808729
 H   -4.008058    2.423401   -2.267792
 H   -0.718933    3.962467    2.366248
 H   -2.230608    4.221667   -1.656696
 H   -1.816154    1.728905    2.523208
 H    5.342194    0.429874    2.135375
 H    7.031703    0.731409    1.665670
 H   -0.663044    0.704458   -1.707819
 H    0.909663    1.256277    0.000206
 H    6.999412   -1.395610    2.805462
 H    7.254288   -1.709825    1.070127
 H    5.586259   -3.063365    1.776017
 H    2.048580   -2.701960   -1.212218
 H    3.306320    1.887790    0.173904
 H    0.081204   -3.065094    0.195244
 H   -2.322323   -3.592014    0.053685
 H   -4.523793   -3.102221   -0.758800
 H   -4.847125   -1.675494   -1.733319
 H   -4.719449   -0.267383    0.390652
 H   -4.566554   -1.751929    1.310675
 H   -6.787847   -2.540088    0.406123
 H   -6.938879   -1.040070   -0.499034
 H   -6.882846    0.258266    1.646274
 H   -6.742908   -1.240737    2.550166
 H   -9.126410   -0.479433    0.758303
 H   -8.984501   -1.990943    1.666419
 H   -9.117979   -0.450130    2.528584
 H   -0.949530    5.254292    0.222737
