39 
6iiv_ligand_xtb.xyz
 C    3.201937   -0.912227   -1.537310
 C    5.601833    1.759427   -0.348832
 C    2.246728   -0.922869   -0.529195
 C    1.068331   -1.849273   -0.572485
 C   -5.026626    1.568511   -0.079912
 C   -0.169692   -1.126259   -1.126757
 C   -3.249040   -0.474059    0.350339
 C   -4.401173   -0.720920   -0.370986
 C   -5.302125    0.305618   -0.590034
 C   -3.869746    1.814430    0.647301
 C   -2.975874    0.779143    0.861640
 C    4.272377   -0.038198   -1.488689
 O    6.415924    0.340889    1.443868
 C    6.764844    1.111974    0.407770
 O    7.910819    1.295832    0.121067
 C    4.406913    0.856808   -0.434112
 C    3.444960    0.851231    0.573813
 C    2.377178   -0.026339    0.524351
 N   -1.394445   -1.869497   -0.940913
 S   -2.084720   -1.808189    0.587020
 O   -2.793667   -3.039041    0.764409
 O   -1.119920   -1.407064    1.572525
Cl   -6.144197    2.850850   -0.349818
 H    3.113184   -1.600517   -2.365102
 H    5.967991    2.035765   -1.337626
 H    5.354013    2.677342    0.192186
 H    0.827565   -2.183069    0.438190
 H    1.286933   -2.721153   -1.192598
 H   -0.046102   -0.916512   -2.193613
 H   -0.306599   -0.179547   -0.600748
 H   -4.582296   -1.717638   -0.738966
 H   -6.210110    0.135512   -1.146574
 H   -3.678039    2.800552    1.039757
 H   -2.073738    0.924853    1.434321
 H    5.012993   -0.047724   -2.274575
 H    5.451692    0.251763    1.522916
 H    3.519327    1.553427    1.394341
 H    1.636717   -0.027442    1.310666
 H   -1.355739   -2.819476   -1.277966
