39 
6iiv_ligand_dft.xyz
 C    1.508967   -0.005485    0.322734
 C    5.242655   -0.458142    0.934883
 C    1.227115   -1.031724   -0.579364
 C   -0.180700   -1.249514   -1.073807
 C   -2.314099    2.677884   -0.014729
 C   -0.910246   -2.301781   -0.221506
 C   -3.105935    0.048575    0.214838
 C   -3.470482    0.777626   -0.913995
 C   -3.071848    2.102929   -1.032557
 C   -1.966389    1.959288    1.125388
 C   -2.366801    0.632195    1.238972
 C    2.795121    0.168873    0.824354
 O    5.482498    1.230708   -0.829620
 C    6.119284    0.440959    0.052702
 O    7.315335    0.470610    0.159993
 C    3.836104   -0.680856    0.438311
 C    3.552311   -1.707568   -0.467204
 C    2.267070   -1.881021   -0.965204
 N   -2.318166   -2.468017   -0.566275
 S   -3.499972   -1.692796    0.300137
 O   -4.724341   -1.912591   -0.448429
 O   -3.341961   -2.077788    1.690176
Cl   -1.800410    4.335730   -0.167073
 H    0.711719    0.665290    0.634474
 H    5.231872    0.008296    1.927073
 H    5.784187   -1.401427    1.042911
 H   -0.167650   -1.583315   -2.119140
 H   -0.735595   -0.306344   -1.044223
 H   -0.858950   -2.040310    0.839632
 H   -0.413757   -3.273004   -0.321500
 H   -4.072964    0.313476   -1.688227
 H   -3.347857    2.688893   -1.901963
 H   -1.396794    2.435142    1.916079
 H   -2.120073    0.052890    2.122310
 H    2.992907    0.973389    1.529124
 H    4.530070    1.050274   -0.805619
 H    4.348914   -2.374901   -0.786015
 H    2.069334   -2.685316   -1.669835
 H   -2.546677   -2.510508   -1.552971
