39 
6iiv_ligand_ani.xyz
 C   27.017110  163.878593  144.167443
 C   26.853349  165.959067  147.346857
 C   26.492833  162.647019  144.572277
 C   26.382696  161.531852  143.554656
 C   20.922130  158.019690  141.889891
 C   25.886422  160.204008  144.112185
 C   23.508077  157.841173  142.809517
 C   23.276365  157.906648  141.440098
 C   21.970289  157.999434  140.974444
 C   21.152958  157.946950  143.260507
 C   22.460185  157.854318  143.722685
 C   27.139624  164.936994  145.056280
 O   28.824628  165.445214  148.559786
 C   28.313754  166.252611  147.613487
 O   28.973910  167.080797  147.033930
 C   26.723776  164.800711  146.381742
 C   26.210856  163.575386  146.792144
 C   26.096786  162.509664  145.903702
 N   25.797753  159.235442  143.020774
 S   25.176676  157.730491  143.388273
 O   25.901849  156.802714  142.535152
 O   25.134840  157.563067  144.833189
Cl   19.285687  158.136233  141.307481
 H   27.336147  164.007874  143.134814
 H   26.421296  166.868952  146.919186
 H   26.340951  165.737092  148.287795
 H   27.364172  161.371649  143.085106
 H   25.705645  161.826146  142.743007
 H   24.887277  160.327564  144.540251
 H   26.544913  159.838774  144.912646
 H   24.112163  157.877055  140.747127
 H   21.760949  158.054565  139.911280
 H   20.318307  157.961414  143.953397
 H   22.677435  157.787707  144.784199
 H   27.569816  165.880205  144.726187
 H   29.762022  165.686820  148.643163
 H   25.894554  163.446342  147.826055
 H   25.693109  161.566013  146.263914
 H   26.670692  159.092753  142.516374
