45 
6ijh_ligand_ani.xyz
 C  -15.564841  -39.079332   17.963523
 C  -15.680060  -39.203360   16.557757
 C  -16.862210  -38.903996   15.919628
 C  -17.979118  -38.470378   16.647777
 C  -17.899422  -38.340454   18.019508
 C  -16.698617  -38.638126   18.701624
 C  -16.604637  -38.503130   20.104765
 C  -15.428203  -38.798776   20.762328
 C  -14.310925  -39.235904   20.036226
 C  -14.372513  -39.374155   18.668213
 C  -19.089257  -37.885176   18.773456
 N  -18.954078  -37.804999   20.167568
 C  -17.774231  -38.042661   20.884782
 O  -17.735258  -37.876971   22.094694
 O  -20.143200  -37.593265   18.233808
 C  -20.132304  -37.389325   20.934179
 C  -20.271862  -35.857097   21.011275
 C  -21.313591  -35.415079   21.985585
 N  -21.076748  -34.752585   23.183206
 C  -22.300224  -34.533234   23.793250
 N  -23.163281  -35.072796   22.909449
 N  -22.584773  -35.612580   21.804974
 C  -19.811008  -34.371927   23.727276
 S  -22.662235  -33.811318   25.248186
 C  -18.818701  -35.326944   23.927353
 C  -17.595300  -34.944042   24.470040
 C  -17.359303  -33.614540   24.802164
 C  -18.357421  -32.665973   24.596683
 C  -19.586001  -33.040902   24.065804
 H  -14.816527  -39.539821   15.987815
 H  -16.936007  -39.003414   14.839395
 H  -18.915941  -38.232139   16.154531
 H  -15.393117  -38.686528   21.840719
 H  -13.388469  -39.466512   20.563745
 H  -13.502576  -39.712851   18.109420
 H  -21.007045  -37.827143   20.452303
 H  -20.015172  -37.815417   21.932431
 H  -19.301311  -35.422743   21.268603
 H  -20.542748  -35.483625   20.018722
 H  -24.162898  -35.094186   23.033374
 H  -18.983661  -36.360093   23.635379
 H  -16.822713  -35.692210   24.622993
 H  -16.401589  -33.317224   25.221003
 H  -18.182084  -31.625412   24.856120
 H  -20.378820  -32.311657   23.922368
