53 
6iji_ligand_dft.xyz
 C   -2.197315    0.430374   -0.859687
 C   -2.474276   -1.802815    0.189582
 O   -1.448373    1.267093   -1.337817
 C    1.980618   -0.750114    0.396937
 C    4.084470   -0.141385    0.025569
 C   -5.865991   -0.077542    0.028178
 C   -6.390883    1.159050   -0.425932
 C   -5.572248    2.105631   -0.992618
 C   -4.191194    1.860949   -1.132417
 C   -3.651212    0.669382   -0.704430
 C   -4.476596   -0.318334   -0.117134
 C   -3.926223   -1.541732    0.331170
 C   -4.732547   -2.496754    0.907328
 C   -6.115460   -2.264787    1.051765
 C   -6.669761   -1.083279    0.622735
 N   -1.711475   -0.808293   -0.438886
 O   -1.946983   -2.823210    0.588884
 C   -0.278936   -1.062553   -0.594116
 C    0.511132   -0.661177    0.660264
 N    2.809445    0.358707    0.272777
 C    3.932431   -1.534223    0.001857
 N    2.613282   -1.879847    0.240897
 C    5.312352    0.473112   -0.215559
 C    6.389896   -0.362213   -0.461480
 C    6.271501   -1.769398   -0.478316
 C    5.034666   -2.355919   -0.249254
 C    2.480330    1.724692    0.436439
 C    3.233185    2.525052    1.294639
 C    2.883442    3.864342    1.420406
 N    1.856615    4.432498    0.783698
 C    1.144281    3.646503   -0.025933
 C    1.415562    2.300499   -0.250291
 C    7.493768   -2.612861   -0.748890
 H   -7.455517    1.348418   -0.317552
 H   -5.985010    3.048646   -1.335620
 H   -3.535507    2.602001   -1.577180
 H   -4.283070   -3.424830    1.244704
 H   -6.740278   -3.026830    1.505907
 H   -7.735724   -0.904277    0.735496
 H    0.056714   -0.497118   -1.463309
 H   -0.140286   -2.126316   -0.783936
 H    0.227721    0.346905    0.972660
 H    0.261451   -1.354655    1.467700
 H    5.424237    1.552461   -0.221529
 H    7.363999    0.080934   -0.653167
 H    4.909659   -3.434502   -0.266234
 H    4.060153    2.108689    1.859488
 H    3.455108    4.512916    2.080470
 H    0.307032    4.113810   -0.538555
 H    0.795439    1.730467   -0.932674
 H    7.949408   -2.354658   -1.711652
 H    8.257460   -2.463905    0.023237
 H    7.244848   -3.677677   -0.771058
