68 
6ijl_ligand_xtb.xyz
 C   -4.788961    0.173700    0.961281
 C   -3.469466   -0.050696   -1.113858
 C   -3.268798   -1.539923   -0.817475
 C   -4.519337   -1.315881    1.232124
 C   -2.199276   -2.001389    1.375966
 C   -0.944074   -2.379939    0.641196
 C    0.141684   -1.545012    0.673782
 C    1.359092   -1.936720    0.077994
 C    1.450121   -3.214744   -0.543382
 C    0.318380   -4.053994   -0.554584
 C   -0.850122   -3.646518    0.023892
 C    3.551524   -1.452804   -0.395605
 C    3.741694   -2.697423   -1.037630
 C    2.688822   -3.567699   -1.114764
 C   -3.840650    1.069146    1.759747
 C   -5.578326    1.124160   -1.194303
 C   -7.616120    2.286202   -1.150699
 C   -8.569886    2.885618   -0.127172
 C   -7.873263    3.900714    0.771088
 C    4.634200   -0.465927   -0.274027
 C    4.298698    0.884952   -0.163839
 C    5.277942    1.844275   -0.025955
 C    6.620835    1.471660    0.008727
 C    6.962393    0.127443   -0.090498
 C    5.978296   -0.831474   -0.235802
 C    7.665582    2.515451    0.199152
 C    8.958624    2.556782   -0.549656
 C    7.919022    3.617198   -0.782206
 N   -4.673187    0.419229   -0.466197
 N   -3.282756   -1.740455    0.612103
 N    2.400103   -1.091328    0.124384
 N    7.744474    2.924745    1.650931
 O   -2.218434   -1.976609    2.591800
 O   -6.625074    1.528526   -0.453675
 O   -5.450058    1.354629   -2.374057
 H   -5.818642    0.398958    1.247380
 H   -2.600802    0.513295   -0.752816
 H   -3.584977    0.124010   -2.184883
 H   -4.090337   -2.114247   -1.259027
 H   -2.324947   -1.881422   -1.242356
 H   -5.336957   -1.918686    0.824300
 H   -4.433791   -1.493207    2.305163
 H    0.094644   -0.584075    1.162088
 H    0.393790   -5.025090   -1.021505
 H   -1.714475   -4.293719    0.027331
 H    4.692486   -2.941738   -1.484305
 H    2.792068   -4.524130   -1.607436
 H   -4.050799    0.971392    2.820798
 H   -3.976524    2.107895    1.468424
 H   -2.803633    0.788477    1.594039
 H   -8.145786    1.623271   -1.844039
 H   -7.119207    3.066262   -1.737403
 H   -9.389611    3.362388   -0.666018
 H   -8.982416    2.078971    0.480837
 H   -7.482275    4.726750    0.181183
 H   -7.047400    3.429344    1.298011
 H   -8.570078    4.298841    1.504045
 H    3.255830    1.155763   -0.185627
 H    5.006876    2.888931    0.037976
 H    8.001171   -0.166816   -0.057562
 H    6.261404   -1.870327   -0.295085
 H    9.115357    1.820534   -1.321426
 H    9.862284    2.822093   -0.021978
 H    8.104027    4.616031   -0.416440
 H    7.366630    3.596904   -1.708029
 H    8.416896    3.691678    1.779479
 H    8.031882    2.121449    2.225680
 H    6.813653    3.229548    1.967144
