68 
6ijl_ligand_ani.xyz
 C   -5.036830    0.004710    0.882790
 C   -3.839378   -0.412185   -1.287976
 C   -3.466843   -1.808020   -0.793687
 C   -4.619159   -1.411458    1.299726
 C   -2.207743   -1.715699    1.372288
 C   -0.953778   -2.221711    0.716949
 C    0.169370   -1.435821    0.791015
 C    1.382569   -1.860973    0.191490
 C    1.435683   -3.124688   -0.445807
 C    0.269406   -3.933825   -0.481329
 C   -0.899033   -3.489363    0.082209
 C    3.591307   -1.402176   -0.270410
 C    3.746356   -2.657871   -0.931192
 C    2.677920   -3.503609   -1.019055
 C   -4.178821    1.090885    1.526948
 C   -5.804777    0.967547   -1.260889
 C   -7.589162    2.481387   -1.125373
 C   -8.526921    3.081876   -0.098124
 C   -7.806688    3.909490    0.961306
 C    4.727151   -0.443692   -0.167384
 C    4.461243    0.924333   -0.072752
 C    5.495485    1.842068   -0.002626
 C    6.829496    1.421336    0.001573
 C    7.090920    0.050512   -0.083925
 C    6.057857   -0.869261   -0.165690
 C    7.950209    2.405586    0.125369
 C    9.107061    2.349711   -0.826330
 C    8.120429    3.489268   -0.898537
 N   -5.014853    0.081520   -0.581192
 N   -3.377739   -1.832572    0.660351
 N    2.446756   -1.017471    0.249162
 N    8.284454    2.774452    1.550516
 O   -2.175536   -1.199947    2.481123
 O   -6.728707    1.540927   -0.462613
 O   -5.698072    1.209819   -2.447135
 H   -6.075442    0.146916    1.192151
 H   -2.990982    0.277381   -1.160452
 H   -4.080935   -0.434533   -2.351429
 H   -4.244141   -2.520963   -1.096699
 H   -2.518222   -2.124336   -1.232483
 H   -5.403375   -2.110379    0.984505
 H   -4.490129   -1.481972    2.381672
 H    0.157891   -0.477710    1.298269
 H    0.313496   -4.899345   -0.975638
 H   -1.795329   -4.103802    0.050573
 H    4.698380   -2.922376   -1.382255
 H    2.765625   -4.466075   -1.518841
 H   -4.196487    0.987055    2.617343
 H   -4.561566    2.082857    1.270764
 H   -3.134371    1.026852    1.202673
 H   -8.140225    1.960830   -1.914145
 H   -6.972104    3.251878   -1.599325
 H   -9.245542    3.709010   -0.641004
 H   -9.105293    2.276309    0.369509
 H   -7.209070    4.703859    0.498463
 H   -7.128646    3.286468    1.553362
 H   -8.519861    4.379105    1.645832
 H    3.427219    1.253181   -0.056739
 H    5.268994    2.904781    0.039500
 H    8.124133   -0.286236   -0.103695
 H    6.294908   -1.928383   -0.216345
 H    9.067194    1.603778   -1.614951
 H   10.105761    2.545112   -0.445933
 H    8.432112    4.477046   -0.569169
 H    7.428819    3.491268   -1.735210
 H    9.066282    3.446826    1.575849
 H    8.550939    1.925445    2.081275
 H    7.458209    3.202108    2.006246
