34 
6im6_ligand_dft.xyz
 C   -0.430636   -0.975781   -0.181722
 C    0.799228   -0.299523   -0.201446
 C    0.824798    1.081672   -0.082306
 C   -2.943438   -2.266923   -0.116592
 C    2.060757   -1.118807   -0.373993
 C    3.225482    1.020736   -0.784010
 C    2.134583    1.838283   -0.097361
 C   -2.841397    3.110806    0.365471
 C   -4.411256   -2.635619   -0.041852
 C    4.333002   -0.808161    0.443741
 N    3.261202   -0.317659   -0.230627
 C   -1.625202   -0.292298   -0.035706
 C   -0.385528    1.778909    0.064601
 C   -1.601031    1.118104    0.091264
 O   -2.812126    1.710500    0.227479
 O   -2.853437   -0.858997   -0.000894
 O    4.404184   -1.914399    0.944202
 H   -0.430098   -2.056739   -0.278309
 H   -2.507013   -2.593513   -1.071506
 H   -2.378304   -2.746727    0.695253
 H    2.055682   -1.603505   -1.362378
 H    2.119616   -1.916086    0.371881
 H    4.208509    1.482998   -0.651684
 H    3.028484    0.961174   -1.863105
 H    2.451974    2.062133    0.929712
 H    2.013079    2.798857   -0.611852
 H   -2.295162    3.439939    1.259495
 H   -2.422316    3.612740   -0.516911
 H   -3.893233    3.380742    0.466687
 H   -4.838255   -2.309474    0.910433
 H   -4.966877   -2.156218   -0.852461
 H   -4.531437   -3.719979   -0.127244
 H    5.163476   -0.077705    0.493739
 H   -0.351680    2.859760    0.155822
