31 
6imb_ligand_dft.xyz
 C    0.690140    1.346592    0.140430
 C   -0.485666    0.585345    0.225596
 C   -0.417468   -0.799195    0.175902
 C    3.088888    2.799895   -0.042452
 C   -1.807387    1.307540    0.407120
 C   -2.825408   -0.872929    0.885958
 C   -1.666639   -1.650518    0.265623
 C    3.373882   -2.581152   -0.287015
 C   -3.925501    0.655475   -0.668149
 N   -2.937945    0.420535    0.236224
 C    1.926637    0.742723   -0.006167
 C    0.836723   -1.413014    0.026038
 C    2.000887   -0.670046   -0.066896
 O    3.246628   -1.180925   -0.211322
 O    3.110508    1.393782   -0.102108
 O   -4.837793   -0.105601   -0.927024
 H    0.615968    2.428750    0.186725
 H    2.503972    3.230154   -0.866338
 H    2.682091    3.157369    0.912964
 H    4.127315    3.120334   -0.133426
 H   -1.894629    2.126465   -0.316126
 H   -1.843241    1.762186    1.408974
 H   -2.650207   -0.712490    1.957435
 H   -3.775264   -1.393134    0.758478
 H   -1.466965   -2.553488    0.854494
 H   -1.964801   -1.983130   -0.737064
 H    3.017517   -3.069114    0.629859
 H    2.828298   -2.989843   -1.147787
 H    4.439372   -2.779161   -0.408864
 H   -3.822019    1.645676   -1.152067
 H    0.878942   -2.496663   -0.013116
