47 
6inz_ligand_dft.xyz
 C   -1.347664    0.338385    0.139483
 C   -2.314309    1.318358   -0.518994
 C   -3.686871    1.199866    0.135826
 C   -4.073398   -0.242722    0.250255
 C   -3.159013   -1.212116    0.180396
 C   -3.537293   -2.648531    0.278480
 O   -1.902599    2.649955   -0.365039
 O   -4.666132    1.888280   -0.605923
 O   -1.823037   -1.008054   -0.001085
 O   -2.476987   -3.460746    0.132962
 O   -4.661832   -3.047716    0.461397
 C    3.461534    0.499205    0.421483
 C    2.102522    1.024794   -0.038259
 C    1.023053   -0.045810    0.174808
 C    1.439213   -1.424376   -0.353034
 C    2.856845   -1.756458    0.113820
 C    3.409722   -3.023092   -0.519249
 C    1.107486    3.280327    0.057491
 C    0.786034    4.460120    0.947168
 N    1.762142    2.250639    0.651866
 O    4.424413    1.438402    0.105755
 O   -0.137932    0.418728   -0.499610
 O    0.617854   -2.454010    0.129129
 O    3.749429   -0.705940   -0.241660
 O    4.718457   -3.287595   -0.074222
 O    0.740860    3.240804   -1.113017
 H   -1.249889    0.550170    1.216484
 H   -2.407332    1.037238   -1.577817
 H   -3.604779    1.635926    1.147313
 H   -5.114163   -0.506013    0.393904
 H   -1.088628    2.802739   -0.882390
 H   -4.319800    2.783024   -0.729907
 H   -2.812901   -4.368193    0.204792
 H    3.438123    0.296563    1.513473
 H    2.172678    1.250489   -1.105703
 H    0.813497   -0.146597    1.250984
 H    1.431861   -1.371046   -1.453898
 H    2.851852   -1.881703    1.208868
 H    3.366249   -2.918894   -1.615202
 H    2.783274   -3.868298   -0.230109
 H    1.342981    4.471300    1.888263
 H   -0.285697    4.421566    1.167545
 H    0.983310    5.381679    0.396309
 H    2.090367    2.369577    1.598369
 H    5.282153    1.077531    0.364431
 H   -0.307656   -2.261483   -0.092214
 H    5.232378   -2.494622   -0.274112
