18 
6ios_ligand_dft.xyz
 N    0.760204   -1.072600    0.565141
 C   -0.106014    0.157004    0.807660
 C   -1.417033    0.055747    0.024465
 O   -1.622117   -1.186130   -0.448825
 C    0.759753    1.327896    0.332501
 C    1.565679    0.720031   -0.818394
 C    1.957534   -0.653540   -0.284205
 O   -2.153236    0.985974   -0.118278
 H    0.190068   -1.778557    0.083631
 H    1.063874   -1.490666    1.446822
 H   -0.357850    0.204652    1.869618
 H   -2.476647   -1.213903   -0.914436
 H    0.130434    2.167845    0.035096
 H    1.417997    1.660608    1.140318
 H    2.449391    1.307430   -1.073195
 H    0.953595    0.626913   -1.721541
 H    2.818429   -0.600452    0.384055
 H    2.132589   -1.417243   -1.041693
