18 
6ios_ligand_xtb.xyz
 N    0.757327   -1.051686    0.555639
 C   -0.092738    0.162201    0.785056
 C   -1.434989    0.042813    0.040437
 O   -1.588868   -1.169205   -0.508131
 C    0.724474    1.338079    0.233737
 C    1.593619    0.679740   -0.833860
 C    2.000439   -0.620598   -0.156450
 O   -2.218828    0.931480   -0.030947
 H    0.198839   -1.686272   -0.037706
 H    0.973141   -1.546698    1.424123
 H   -0.322074    0.291137    1.845391
 H   -2.441975   -1.244577   -0.968814
 H    0.073431    2.114682   -0.161936
 H    1.343263    1.775652    1.016067
 H    2.454180    1.287383   -1.098562
 H    1.018612    0.485588   -1.739189
 H    2.783870   -0.435795    0.579539
 H    2.334175   -1.390909   -0.849280
