15 
6iou_ligand_ani.xyz
 N   -0.466354    1.578879    0.056279
 C   -0.197894    0.258879    0.708265
 C    1.059500   -0.331448    0.087693
 O    1.867160    0.650569   -0.375443
 C   -1.405362   -0.647704    0.488694
 O   -1.819221   -0.369225   -0.844215
 O    1.350816   -1.497786    0.032904
 H    0.423168    1.940961   -0.313624
 H   -0.887498    2.244939    0.717453
 H   -1.117337    1.366731   -0.724675
 H    0.010922    0.389566    1.769976
 H    2.655932    0.211014   -0.733814
 H   -1.109666   -1.693523    0.616256
 H   -2.205164   -0.410655    1.203520
 H   -2.433385   -1.048008   -1.142921
