23 
6irt_ligand_xtb.xyz
 C    1.525685   -0.551188    0.153605
 C   -0.550197    0.263573   -1.071930
 C    0.388101    0.475209    0.161842
 C   -1.944427    0.079211    0.665502
 C   -0.577150    0.333405    1.350737
 C   -1.822975    0.965528   -0.579787
 C   -1.000361   -1.181665   -0.997370
 C   -1.830009   -1.286353    0.030895
 N    0.988584    1.853253    0.086168
 O    2.601461   -0.060439   -0.479950
 O    1.447482   -1.641772    0.619574
 H   -0.112057    0.578145   -2.016100
 H   -2.798462    0.237805    1.314391
 H   -0.295627   -0.504387    1.986862
 H   -0.605565    1.238949    1.956293
 H   -1.724719    2.030496   -0.361714
 H   -2.651574    0.825930   -1.269092
 H   -0.648764   -1.949705   -1.657147
 H   -2.310688   -2.167296    0.406666
 H    0.271486    2.521153   -0.228157
 H    1.772009    1.825346   -0.585853
 H    1.355571    2.150503    0.998944
 H    3.304760   -0.728344   -0.546225
