23 
6irt_ligand_ani.xyz
 C    1.502672   -0.535633    0.168609
 C   -0.579163    0.318694   -1.064219
 C    0.372839    0.489760    0.173784
 C   -1.954896    0.012722    0.685582
 C   -0.595682    0.325442    1.367424
 C   -1.880570    0.964533   -0.531740
 C   -1.004611   -1.132207   -1.076684
 C   -1.802167   -1.324451   -0.024557
 N    1.070296    1.844781    0.117161
 O    2.504989   -0.108353   -0.646739
 O    1.558842   -1.582373    0.760350
 H   -0.159465    0.694134   -2.000416
 H   -2.818755    0.103184    1.348436
 H   -0.281395   -0.485851    2.028822
 H   -0.664239    1.251940    1.948014
 H   -1.775874    2.019537   -0.253411
 H   -2.725442    0.850902   -1.218526
 H   -0.606734   -1.881949   -1.751375
 H   -2.225983   -2.264182    0.316463
 H    0.481303    2.539863   -0.364801
 H    1.954520    1.706663   -0.411231
 H    1.290712    2.173174    1.077579
 H    3.178093   -0.808229   -0.637764
