38 
6isd_ligand_ani.xyz
 O    2.563015   -2.109336    0.238430
 C    2.272882   -1.094637   -0.701787
 C    3.238797   -1.264217   -1.870481
 C    4.683336   -1.125925   -1.390903
 C    4.920998    0.232828   -0.718502
 C    3.890751    0.499349    0.361461
 O    4.201009    0.841564    1.487624
 C    2.439141    0.302194   -0.067217
 C    1.474050    0.551975    1.117327
 O    1.813907   -0.304383    2.198650
 C    0.017747    0.315840    0.760042
 C   -0.695807    1.210493   -0.046812
Cl    0.055298    2.674352   -0.622453
 C   -2.016090    0.981347   -0.408131
 C   -2.644732   -0.165044    0.062161
 S   -4.344725   -0.454821   -0.370643
 O   -4.657086    0.381191   -1.525481
 O   -4.562733   -1.897844   -0.395787
 C   -5.263924    0.189723    1.016751
 C   -1.967821   -1.081513    0.861090
 C   -0.651303   -0.825350    1.211225
 H    2.201825   -1.808899    1.091028
 H    1.232714   -1.193609   -1.059881
 H    3.012325   -0.505434   -2.632995
 H    3.072308   -2.243875   -2.331141
 H    4.879413   -1.922773   -0.663225
 H    5.379068   -1.260511   -2.225419
 H    4.827827    1.034711   -1.465644
 H    5.917412    0.308999   -0.275672
 H    2.232779    1.043549   -0.846242
 H    1.585451    1.599016    1.430338
 H    2.682852    0.006680    2.502943
 H   -2.545816    1.677355   -1.051466
 H   -5.053033    1.254278    1.134416
 H   -6.320389    0.036035    0.784352
 H   -4.994722   -0.365632    1.917796
 H   -2.465099   -1.986625    1.195227
 H   -0.122425   -1.512010    1.862726
