58 
6itp_ligand_ani.xyz
 C    3.218786   -1.551492   -0.493074
 C    4.724915   -1.694905   -0.245602
 C    5.486433   -0.400895   -0.470839
 C    4.852128    0.844506    0.116709
 C    3.342813    0.926783   -0.142757
 C    2.729483    2.166771    0.512296
 C    1.254524    2.327667    0.143283
 C    0.419955    1.065686    0.405639
 C    1.105691   -0.176321   -0.229615
 C    2.576652   -0.365794    0.257870
 C   -1.198581   -1.203389   -0.685442
 C    0.242935   -1.454643   -0.196880
 C   -1.867576   -0.023023    0.015782
 C   -0.976954    1.211495   -0.197162
 C   -1.871837    2.387008    0.219095
 C   -3.312271    1.937325   -0.171169
 C   -3.179149    0.479856   -0.674711
 C   -2.140381   -0.307950    1.499349
 C    2.686842   -0.611576    1.772046
 C   -4.373171   -0.429269   -0.419746
 C   -5.396826   -0.167411    0.669092
 O    6.549711   -0.369959   -1.052565
 O    0.262630   -2.012661    1.110382
 O   -2.989547    0.528713   -2.077385
 O   -4.527007   -1.409403   -1.131441
 O   -6.272287   -1.242558    0.798299
 H    3.040028   -1.427538   -1.570774
 H    2.724257   -2.482513   -0.189861
 H    4.902610   -2.002123    0.794862
 H    5.167048   -2.464012   -0.885457
 H    5.368372    1.713003   -0.304897
 H    5.053488    0.851520    1.197427
 H    3.216320    1.025404   -1.233690
 H    2.844684    2.100849    1.602607
 H    3.291507    3.056718    0.201016
 H    0.828106    3.184650    0.680295
 H    1.188874    2.568497   -0.928824
 H    0.334907    0.922749    1.492385
 H    1.191671    0.065133   -1.303337
 H   -1.149620   -0.999942   -1.762336
 H   -1.803255   -2.114953   -0.565970
 H    0.686328   -2.183847   -0.893272
 H   -0.830899    1.297750   -1.284665
 H   -1.583071    3.319987   -0.277459
 H   -1.808433    2.563194    1.300095
 H   -3.984422    2.022696    0.689458
 H   -3.736726    2.536810   -0.980535
 H   -1.217925   -0.489047    2.052474
 H   -2.762737   -1.203762    1.600940
 H   -2.664312    0.521024    1.987891
 H    2.122361    0.129086    2.344547
 H    3.726734   -0.557377    2.108213
 H    2.298513   -1.596780    2.034103
 H   -5.932758    0.761240    0.412837
 H   -4.879323    0.018339    1.620374
 H   -0.427659   -2.685972    1.144333
 H   -3.233524   -0.354957   -2.394770
 H   -6.105611   -1.811443    0.028698
