58 
6itq_ligand_ani.xyz
 C    3.415157   -1.667355    0.431275
 C    3.785934   -1.692128   -1.053735
 C    4.565303   -0.451762   -1.448076
 C    3.980875    0.859033   -0.964694
 C    3.557307    0.832167    0.514388
 C    2.876517    2.148127    0.920230
 C    1.463886    2.285839    0.339601
 C    0.562844    1.072636    0.615918
 C    1.278197   -0.245074    0.203652
 C    2.672055   -0.393839    0.888271
 C   -0.987633   -1.282967   -0.379370
 C    0.378832   -1.493037    0.304334
 C   -1.695653   -0.009729    0.081348
 C   -0.744031    1.172058   -0.169505
 C   -1.643305    2.405900   -0.015694
 C   -3.035678    1.939228   -0.537184
 C   -2.897828    0.423821   -0.822837
 C   -2.153633   -0.098169    1.544098
 C    2.583245   -0.457967    2.423061
 C   -4.146770   -0.416643   -0.594223
 C   -5.277484    0.011209    0.323000
 O    5.567841   -0.501305   -2.128225
 O    0.231000   -1.873298    1.665168
 O   -2.545200    0.276823   -2.186581
 O   -4.254551   -1.480090   -1.184134
 O   -6.193833   -1.022542    0.498851
 H    2.821209   -2.550720    0.696188
 H    4.338002   -1.737418    1.023070
 H    4.385434   -2.569831   -1.310052
 H    2.875799   -1.725601   -1.669719
 H    3.118534    1.092400   -1.602646
 H    4.724475    1.643113   -1.138181
 H    4.484161    0.721476    1.096368
 H    3.496884    2.990333    0.588909
 H    2.833527    2.215201    2.014904
 H    0.996943    3.197662    0.734122
 H    1.536515    2.431563   -0.748092
 H    0.340234    1.046417    1.691429
 H    1.461827   -0.137883   -0.877957
 H   -1.631155   -2.160657   -0.217194
 H   -0.807791   -1.223498   -1.460053
 H    0.875256   -2.316499   -0.232597
 H   -0.463985    1.119303   -1.232791
 H   -1.261602    3.267175   -0.575152
 H   -1.713834    2.709910    1.036120
 H   -3.813834    2.158346    0.201853
 H   -3.321543    2.431363   -1.470363
 H   -2.816912   -0.959548    1.678563
 H   -1.311345   -0.227899    2.224741
 H   -2.700154    0.798137    1.858219
 H    3.588435   -0.349580    2.848300
 H    2.171321   -1.408974    2.761217
 H    1.961801    0.338921    2.837742
 H   -4.864750    0.321763    1.292675
 H   -5.752982    0.902063   -0.119348
 H   -0.472894   -2.532187    1.702042
 H   -2.784265   -0.636275   -2.411053
 H   -5.964193   -1.693384   -0.165065
