58 
6itq_ligand_xtb.xyz
 C    3.414257   -1.668367    0.293565
 C    3.769111   -1.563945   -1.190479
 C    4.580685   -0.316092   -1.434784
 C    3.927075    0.935181   -0.908737
 C    3.521059    0.801179    0.567897
 C    2.829996    2.077413    1.051757
 C    1.436251    2.237123    0.457311
 C    0.554384    1.006105    0.681038
 C    1.267902   -0.265567    0.180871
 C    2.656678   -0.448521    0.846945
 C   -0.990118   -1.274294   -0.473532
 C    0.362520   -1.518980    0.226035
 C   -1.691480   -0.029037    0.059432
 C   -0.739448    1.160684   -0.112188
 C   -1.630678    2.373930    0.146451
 C   -2.975412    1.978360   -0.495744
 C   -2.885197    0.475079   -0.834667
 C   -2.159641   -0.242065    1.498252
 C    2.562003   -0.650084    2.365682
 C   -4.118174   -0.376151   -0.601508
 C   -5.228643    0.063057    0.325671
 O    5.649558   -0.319454   -1.992261
 O    0.193171   -1.985756    1.547808
 O   -2.551481    0.359051   -2.203658
 O   -4.237992   -1.425467   -1.204368
 O   -6.149606   -0.966602    0.525375
 H    2.839990   -2.577562    0.472094
 H    4.346198   -1.765459    0.856192
 H    4.344573   -2.436517   -1.504592
 H    2.862997   -1.516458   -1.798245
 H    3.050622    1.134544   -1.527478
 H    4.617739    1.773218   -1.023720
 H    4.450669    0.686542    1.138149
 H    3.439489    2.943149    0.782914
 H    2.759967    2.056776    2.139759
 H    0.955884    3.108342    0.905837
 H    1.513488    2.427044   -0.615392
 H    0.328226    0.914027    1.743958
 H    1.444821   -0.107418   -0.888633
 H   -1.622030   -2.159424   -0.348108
 H   -0.798494   -1.146973   -1.540710
 H    0.866830   -2.309892   -0.356358
 H   -0.475375    1.186700   -1.176407
 H   -1.229190    3.277370   -0.307171
 H   -1.740862    2.553966    1.215689
 H   -3.810035    2.196881    0.165120
 H   -3.130684    2.512332   -1.432205
 H   -2.844853   -1.087211    1.547828
 H   -1.311476   -0.462785    2.138158
 H   -2.665207    0.635976    1.887789
 H    3.559890   -0.641818    2.800201
 H    2.095187   -1.602384    2.590190
 H    1.977512    0.127106    2.843966
 H   -4.846778    0.388966    1.296358
 H   -5.719771    0.924464   -0.158940
 H   -0.443670   -2.708411    1.534986
 H   -2.848308   -0.513992   -2.500937
 H   -5.975342   -1.635333   -0.159053
