117 
6ixd_ligand_dft.xyz
 C   -5.868501   -2.595591   -0.638226
 O   -6.167354   -1.530573   -0.123784
 C   -6.364990   -2.971596   -2.025428
 C   -5.670265   -2.019217   -3.021410
 C   -4.135337   -2.140837   -3.027347
 C   -3.384907   -0.899544   -3.534002
 C   -3.654787    0.352711   -2.700008
 S   -2.646727    1.785060   -3.227632
 C   -3.185686    2.691010   -1.741302
 C   -3.345862    1.661477   -0.596033
 N   -2.199825    1.583419    0.278657
 C   -1.431804    0.490324    0.042783
 O   -0.331562    0.263409    0.557199
 N   -2.080882   -0.303538   -0.859892
 C   -3.398130    0.221807   -1.191254
 C   -2.767898   -0.479663    3.253895
 C   -2.739730   -1.635137    2.288580
 C   -3.902934   -2.044944    1.637312
 C   -3.845454   -3.069311    0.695642
 C   -1.445360   -3.307145    1.064095
 N   -4.953825   -3.467950   -0.093233
 C   -2.626814   -3.693199    0.433597
 C   -0.152048   -3.940235    0.615728
 C   -1.521588   -2.264820    1.999808
 O   -0.411026   -1.711209    2.583982
 C    0.433797   -2.480148    3.422832
 C    1.864978   -2.557652    2.890847
 O    2.718979   -3.161468    3.524218
 C    2.408298   -0.353134   -0.755874
 N    2.069777   -1.920610    1.721693
 O    1.728198   -1.290346   -1.169084
 C    3.492562   -0.546113    0.324217
 C    4.872724   -3.090550   -0.589931
 C    3.599947   -3.161973    0.216101
 C    7.242483   -2.841678   -2.071583
 C    3.357232   -1.890067    1.056120
 O    3.546823    0.507469    1.246694
 C    4.834588   -2.754776   -1.946480
 C    6.115775   -3.298089    0.012788
 C    6.009255   -2.632298   -2.683010
 C    7.292310   -3.175085   -0.720407
 C    2.691352    2.886828    0.218817
 N    2.224623    0.897489   -1.268696
 O    3.463010    3.728306    0.650265
 C    3.059251    2.078815   -1.034804
 C    2.990409    2.905845   -2.348640
 C    1.226563    1.004228   -2.337837
 C    3.335572    4.385640   -2.198624
 C    3.910670    2.259625   -3.392556
 S    1.219992    2.742073   -2.840521
 N    1.472178    2.630774    0.756761
 O    1.208045    0.788168    2.788011
 C    1.090557    3.171252    2.034891
 C   -0.328789    3.684213    2.044928
 C   -0.939022    4.498074    1.094389
 C   -2.282886    4.833925    1.261312
 C    1.134044    2.129790    3.215625
 C   -1.032512    3.222488    3.155517
 C   -2.377533    3.544242    3.312518
 C   -2.998966    4.349488    2.358854
 C   -0.138223    2.407089    4.055043
 H   -7.446872   -2.820968   -2.068283
 H   -6.155909   -4.019408   -2.271949
 H   -6.061998   -2.195850   -4.029044
 H   -5.973586   -1.006458   -2.739677
 H   -3.841977   -3.003402   -3.638319
 H   -3.771626   -2.360100   -2.016667
 H   -2.308389   -1.106788   -3.520735
 H   -3.655330   -0.694155   -4.576541
 H   -4.705275    0.646445   -2.813860
 H   -2.443689    3.451684   -1.488632
 H   -4.141003    3.188010   -1.936546
 H   -4.246304    1.888613   -0.018764
 H   -1.783608    2.407225    0.689853
 H   -1.889726   -1.295657   -0.835820
 H   -4.186911   -0.368547   -0.714378
 H   -3.797279   -0.195002    3.487747
 H   -2.251508   -0.726421    4.186444
 H   -2.264959    0.393963    2.823183
 H   -4.844434   -1.550313    1.836672
 H   -4.774857   -4.292586   -0.648224
 H   -2.579956   -4.479718   -0.317553
 H   -0.359755   -4.803003   -0.023378
 H    0.471204   -4.290414    1.441531
 H    0.443731   -3.229393    0.033829
 H    0.048514   -3.494721    3.565628
 H    0.478031   -1.990711    4.400467
 H    1.264218   -1.520809    1.255244
 H    4.456948   -0.544691   -0.198730
 H    2.748000   -3.316005   -0.446611
 H    3.640875   -3.997101    0.924117
 H    8.160628   -2.746669   -2.643920
 H    4.116569   -1.859095    1.844045
 H    2.747391    0.479195    1.814443
 H    3.870648   -2.580853   -2.418550
 H    6.159013   -3.558726    1.067908
 H    5.960628   -2.375068   -3.737539
 H    8.250285   -3.340676   -0.235921
 H    4.096422    1.778524   -0.868294
 H    0.236695    0.711052   -1.985884
 H    1.499212    0.343722   -3.166365
 H    2.641263    4.904969   -1.535508
 H    4.338258    4.497664   -1.777663
 H    3.309732    4.866461   -3.182042
 H    3.773690    2.733081   -4.368602
 H    3.720469    1.187054   -3.501260
 H    4.957013    2.386572   -3.089801
 H    0.959033    1.821132    0.422299
 H    0.448567    0.563264    2.215063
 H    1.797813    3.980543    2.242932
 H   -0.378265    4.835693    0.226851
 H   -2.777875    5.467118    0.530647
 H    2.041013    2.278540    3.803393
 H   -2.939234    3.169441    4.163817
 H   -4.048838    4.603164    2.471609
 H    0.110046    2.977944    4.958116
 H   -0.588260    1.464577    4.383741
