117 
6ixd_ligand_xtb.xyz
 C   -5.713050   -3.049760   -0.776086
 O   -6.145865   -2.186084   -0.043014
 C   -6.265992   -3.275154   -2.172474
 C   -5.902881   -2.023668   -2.990394
 C   -4.387332   -1.789174   -3.080738
 C   -3.997695   -0.314086   -3.225893
 C   -4.374197    0.536021   -2.020075
 S   -3.841703    2.275493   -2.228095
 C   -4.275877    2.581589   -0.491178
 C   -3.900792    1.319862    0.302212
 N   -2.584540    1.396554    0.879957
 C   -1.681171    0.637689    0.212576
 O   -0.476572    0.624308    0.416612
 N   -2.347160   -0.097022   -0.709603
 C   -3.775600    0.120085   -0.670736
 C   -2.761789   -1.153306    3.260392
 C   -2.610215   -2.121833    2.127269
 C   -3.722553   -2.580733    1.440103
 C   -3.565433   -3.448953    0.368654
 C   -1.161867   -3.459967    0.708252
 N   -4.622269   -3.816075   -0.483679
 C   -2.293835   -3.899381    0.038681
 C    0.178828   -3.912564    0.220412
 C   -1.328386   -2.539336    1.749209
 O   -0.274673   -1.926033    2.395994
 C    0.610328   -2.719766    3.164170
 C    2.040237   -2.775762    2.609294
 O    2.873640   -3.515437    3.094785
 C    2.429388   -0.291261   -0.808825
 N    2.258589   -1.926073    1.599620
 O    1.650342   -1.191586   -1.088356
 C    3.584161   -0.455910    0.190720
 C    5.146115   -2.904469   -0.653072
 C    3.793115   -3.008107   -0.015217
 C    7.667866   -2.650656   -1.810164
 C    3.527979   -1.809284    0.918851
 O    3.649088    0.602801    1.105360
 C    5.282155   -2.468368   -1.965431
 C    6.290764   -3.212562    0.072301
 C    6.533886   -2.342787   -2.542027
 C    7.542897   -3.086974   -0.501742
 C    2.868076    2.848080    0.086693
 N    2.316862    0.913780   -1.400987
 O    3.680690    3.614401    0.554243
 C    3.163122    2.073928   -1.214297
 C    2.974419    2.963919   -2.458906
 C    1.200654    1.087874   -2.312034
 C    3.348833    4.420687   -2.244802
 C    3.736960    2.386202   -3.647147
 S    1.158713    2.832702   -2.767311
 N    1.631058    2.667897    0.585600
 O    1.282221    0.837718    2.549857
 C    1.250808    3.217543    1.860014
 C   -0.145340    3.766355    1.852659
 C   -0.727752    4.584724    0.903653
 C   -2.032468    5.012883    1.105277
 C    1.248332    2.160598    3.017290
 C   -0.854874    3.351674    2.976220
 C   -2.158648    3.774631    3.172324
 C   -2.738977    4.616813    2.231661
 C   -0.022640    2.461078    3.846019
 H   -7.351498   -3.363318   -2.122580
 H   -5.855679   -4.174334   -2.632697
 H   -6.325042   -2.108480   -3.992615
 H   -6.380509   -1.175682   -2.500182
 H   -3.987323   -2.335348   -3.937715
 H   -3.894144   -2.179318   -2.190301
 H   -2.919298   -0.242278   -3.381237
 H   -4.485710    0.111238   -4.105281
 H   -5.461041    0.569671   -1.900664
 H   -3.727469    3.454243   -0.143585
 H   -5.347415    2.775927   -0.434518
 H   -4.645141    1.140285    1.084962
 H   -2.306152    2.173745    1.458604
 H   -1.929363   -0.906425   -1.133973
 H   -4.301744   -0.758741   -0.284344
 H   -3.811211   -0.949006    3.453973
 H   -2.304591   -1.554387    4.163654
 H   -2.254369   -0.220604    3.020158
 H   -4.707757   -2.250802    1.724582
 H   -4.365023   -4.517408   -1.165350
 H   -2.174461   -4.586880   -0.788359
 H    0.063022   -4.709237   -0.510841
 H    0.810477   -4.277750    1.025232
 H    0.688536   -3.077406   -0.259444
 H    0.235411   -3.739272    3.299787
 H    0.681073   -2.254644    4.156105
 H    1.458693   -1.435544    1.222285
 H    4.522336   -0.417875   -0.381805
 H    3.016856   -3.045267   -0.778206
 H    3.735944   -3.909195    0.598138
 H    8.645320   -2.553170   -2.259159
 H    4.310284   -1.799806    1.689254
 H    2.883009    0.552502    1.715600
 H    4.396413   -2.229450   -2.538356
 H    6.193506   -3.557141    1.091280
 H    6.625040   -2.004895   -3.564496
 H    8.425099   -3.330926    0.071926
 H    4.212693    1.768479   -1.147323
 H    0.262227    0.810783   -1.827135
 H    1.330386    0.464238   -3.203643
 H    2.684491    4.895289   -1.527961
 H    4.363957    4.490695   -1.861483
 H    3.281702    4.958670   -3.187564
 H    3.437716    2.893114   -4.561897
 H    3.546516    1.321513   -3.762661
 H    4.806186    2.530590   -3.503519
 H    1.014636    1.958283    0.209741
 H    0.544197    0.689091    1.926120
 H    1.979496    4.006364    2.082195
 H   -0.175823    4.887129    0.027168
 H   -2.496555    5.669247    0.383826
 H    2.151441    2.261546    3.624428
 H   -2.713436    3.462209    4.044867
 H   -3.751042    4.964228    2.379938
 H    0.232403    2.968390    4.777948
 H   -0.535526    1.531417    4.101414
