58 
6j1l_ligand_ani.xyz
 C   28.652306   -1.810026   -4.125824
 C   29.318527   -0.623959   -3.844748
 C   30.093800   -0.546406   -2.694585
 C   30.198572   -1.624217   -1.821277
 C   29.528078   -2.801739   -2.117132
 C   28.746114   -2.907595   -3.268943
 C   28.049659   -4.207444   -3.602856
 C   29.029203   -5.197059   -4.229472
 C   30.373008   -7.226586   -3.656184
 C   30.665733   -8.118433   -2.618978
 C   31.565143   -9.153549   -2.806983
 C   32.182288   -9.344092   -4.048047
 C   31.874866   -8.446978   -5.075552
 C   30.993164   -7.392467   -4.896757
 C   33.103329  -10.479749   -4.299311
 C   34.071379  -10.895689   -3.382152
 C   34.928912  -11.961401   -3.597778
 C   34.819753  -12.678334   -4.785192
 C   33.880325  -12.281099   -5.733078
 C   33.040306  -11.206339   -5.492995
 C   35.756334  -13.834485   -5.111836
 C   35.645552  -14.985439   -4.080594
 C   37.213733  -13.335747   -5.185205
 C   32.607391    0.724972   -3.022024
 C   33.388240   -0.410502   -2.379894
 F   34.205984  -10.219542   -2.223332
 F   38.026271  -14.247439   -5.716696
 F   37.683815  -13.033559   -3.959083
 F   37.300502  -12.224306   -5.927035
 F   35.742617  -14.568160   -2.814336
 F   36.579459  -15.917926   -4.276910
 F   34.440919  -15.581477   -4.223876
 N   29.457243   -6.193859   -3.388127
 O   35.490096  -14.387442   -6.370038
 O   31.115861    1.050467   -0.877683
 O   30.338724    2.035194   -3.091920
 O   29.397557   -5.065398   -5.380741
 S   30.964831    0.960534   -2.328004
 H   28.044120   -1.884112   -5.024933
 H   29.233650    0.242022   -4.495627
 H   30.798303   -1.530667   -0.919820
 H   29.613062   -3.651371   -1.444242
 H   27.267966   -4.028732   -4.346382
 H   27.571231   -4.640129   -2.716477
 H   30.193037   -7.995361   -1.647249
 H   31.784371   -9.830202   -1.986975
 H   32.353636   -8.564803   -6.045525
 H   30.774732   -6.709462   -5.706221
 H   35.651589  -12.209089   -2.830007
 H   33.826691  -12.819225   -6.674648
 H   32.298870  -10.933977   -6.238877
 H   33.086068    1.694426   -2.846332
 H   32.480404    0.597132   -4.101405
 H   34.414553   -0.404334   -2.759311
 H   33.413488   -0.286820   -1.294165
 H   32.949749   -1.386809   -2.612053
 H   29.058359   -6.215965   -2.462499
 H   34.768531  -15.024247   -6.263075
