24 
6jaq_ligand_xtb.xyz
 C    0.496978   -1.552366   -0.261215
 C    1.560685   -0.482403   -0.561591
 C    1.201854    0.803997    0.193921
 C   -0.225586    1.230517   -0.166338
 C   -1.183160    0.078638    0.147422
 C   -2.614913    0.394218   -0.292845
 O    0.663966   -1.916976    1.081695
 O    2.845752   -0.926014   -0.219457
 O    2.080164    1.853087   -0.140661
 O   -0.619151    2.357668    0.566518
 O   -0.794685   -1.109633   -0.544464
 O   -3.498378   -0.644141    0.028411
 H    0.645716   -2.423211   -0.920050
 H    1.575736   -0.276069   -1.636997
 H    1.252943    0.605317    1.277863
 H   -0.258072    1.444134   -1.248032
 H   -1.170147   -0.103415    1.230970
 H   -2.614485    0.587005   -1.374197
 H   -2.957092    1.284933    0.234338
 H   -0.019806   -2.552217    1.323791
 H    2.788414   -1.331659    0.656653
 H    2.965532    1.475391   -0.220030
 H    0.107775    2.992247    0.517508
 H   -3.153004   -1.449992   -0.374275
