48 
6jid_ligand_ani.xyz
 S  -67.323150   32.789057  -23.038176
 O  -58.706547   28.158011  -27.865715
 O  -60.721535   30.009648  -23.672108
 O  -68.725834   32.442234  -22.947259
 O  -66.913130   34.182379  -23.081177
 N  -66.471298   32.003988  -21.784830
 C  -65.263772   31.481006  -22.286699
 C  -64.194403   31.055925  -21.507993
 C  -66.498511   31.866222  -24.340119
 C  -65.246054   31.373609  -23.683348
 C  -64.143159   30.817434  -24.307605
 C  -63.066380   30.365268  -23.541723
 C  -63.092252   30.514532  -22.149899
 C  -61.824705   29.782875  -24.147900
 N  -61.968529   28.981510  -25.253875
 C  -63.096495   28.096762  -25.510056
 C  -63.484878   28.215062  -26.979463
 C  -60.742615   28.574528  -25.926081
 C  -61.006479   28.227886  -27.359878
 C  -59.855316   28.053763  -28.256640
 N  -60.129466   27.775940  -29.606287
 C  -61.349162   27.635806  -29.998538
 N  -62.437377   27.769191  -29.169357
 C  -62.265613   28.073219  -27.831581
 C  -61.639648   27.328459  -31.425386
 C  -62.789097   26.638635  -31.818019
 C  -63.020922   26.371988  -33.161702
 C  -60.717733   27.731623  -32.390640
 C  -60.956454   27.475756  -33.735729
 C  -62.108658   26.797973  -34.124296
 H  -66.425996   32.564490  -20.938814
 H  -64.221880   31.152845  -20.425543
 H  -66.326867   32.527447  -25.194441
 H  -67.180258   31.061708  -24.637060
 H  -64.104075   30.749861  -25.391413
 H  -62.226361   30.196288  -21.577161
 H  -63.931849   28.335783  -24.850696
 H  -62.799019   27.061906  -25.283690
 H  -63.940658   29.199062  -27.156715
 H  -64.238092   27.459914  -27.237188
 H  -60.274984   27.724483  -25.398584
 H  -60.020006   29.392567  -25.851521
 H  -63.365932   27.784503  -29.571472
 H  -63.491222   26.277342  -31.070562
 H  -63.920438   25.837958  -33.459336
 H  -59.815403   28.245427  -32.069387
 H  -60.237203   27.801992  -34.482324
 H  -62.292584   26.596134  -35.176016
