38 
6jio_ligand_dft.xyz
 C   -3.294369    0.932607   -0.272969
 C   -3.299035    2.415666    0.090524
 C   -1.692981   -0.830486    0.242756
 C   -3.214409    0.753450   -1.788460
 C   -4.509846    0.228934    0.328563
 O   -2.072901    0.455913    0.357447
 O   -2.318081   -1.700607   -0.338402
 N   -0.513294   -1.058839    0.897412
 C    0.128622   -2.351779    0.718060
 C    1.127676   -2.272251   -0.433740
 C    2.033451   -1.067009   -0.288929
 C    3.245795   -0.993075   -0.978151
 C    4.086485    0.102842   -0.866825
 C    3.731013    1.181017   -0.045577
 N    4.592328    2.268462    0.117586
 C    2.520122    1.114339    0.645842
 C    1.678161    0.010081    0.529164
 C    0.388419   -0.007216    1.331406
 H   -3.310606    2.544664    1.177241
 H   -2.409371    2.912100   -0.309598
 H   -4.186167    2.901671   -0.327269
 H   -2.303579    1.222303   -2.175588
 H   -3.211875   -0.303547   -2.057233
 H   -4.076132    1.238486   -2.259079
 H   -4.507177   -0.832930    0.079856
 H   -4.508858    0.340202    1.417875
 H   -5.426061    0.684521   -0.061905
 H   -0.641278   -3.099094    0.530269
 H    0.641900   -2.602737    1.654606
 H    0.564196   -2.213486   -1.374325
 H    1.724103   -3.191350   -0.477482
 H    3.539597   -1.821645   -1.618994
 H    5.028280    0.125457   -1.409519
 H    5.214208    2.431402   -0.662113
 H    4.138896    3.123804    0.407440
 H    2.227932    1.941487    1.291551
 H    0.625745   -0.164671    2.393589
 H   -0.123753    0.950829    1.253349
