38 
6jio_ligand_ani.xyz
 C   12.089879  -12.717472  -34.171681
 C   13.561883  -12.713500  -33.775482
 C   10.730531  -11.152562  -35.439709
 C   11.207162  -12.696381  -32.927817
 C   11.785491  -13.917536  -35.062087
 O   11.932087  -11.476285  -34.927536
 O    9.712447  -11.807407  -35.321248
 N   10.782883   -9.973713  -36.148741
 C    9.519348   -9.411409  -36.591944
 C    8.925374   -8.538898  -35.488985
 C    9.965105   -7.608942  -34.893762
 C    9.575022   -6.515521  -34.118921
 C   10.500311   -5.666815  -33.532757
 C   11.871360   -5.890738  -33.709179
 N   12.810072   -5.010879  -33.169770
 C   12.271065   -6.977973  -34.488715
 C   11.337190   -7.827430  -35.077805
 C   11.818206   -8.975500  -35.952345
 H   13.793867  -11.841129  -33.156433
 H   13.801072  -13.614105  -33.200757
 H   14.200859  -12.694358  -34.663913
 H   11.390420  -11.784373  -32.350910
 H   10.150869  -12.735212  -33.201394
 H   11.444867  -13.561067  -32.298897
 H   12.046615  -14.839970  -34.532302
 H   10.725836  -13.946995  -35.324456
 H   12.377076  -13.863721  -35.981352
 H    9.715345   -8.809554  -37.488768
 H    8.846478  -10.227503  -36.863203
 H    8.076126   -7.964287  -35.879665
 H    8.518850   -9.188049  -34.701596
 H    8.513128   -6.325783  -33.970792
 H   10.167874   -4.819258  -32.937290
 H   12.495223   -4.499694  -32.357490
 H   13.730446   -5.403909  -33.028426
 H   13.336631   -7.152238  -34.639337
 H   12.702834   -9.446695  -35.520351
 H   12.106167   -8.595138  -36.944185
