42 
6kdx_ligand_ani.xyz
 C   26.478855    4.433069   55.023467
 C   26.119741    3.562255   56.079865
 C   25.556390    5.310748   54.513270
 C   23.230293    6.236011   54.560186
 C   24.852910    3.584686   56.603723
 C   21.991840    6.216437   55.117096
 C   24.242759    5.351551   55.038434
 C   23.882080    4.482955   56.094059
 C   21.731691    5.291301   56.184300
 C   18.321132    3.674159   59.406180
 C   18.146912    3.349193   61.478394
 C   16.772841    1.406446   62.768996
 C   16.730877    1.404224   61.406872
 C   17.527057    2.416716   63.449288
 C   15.999598    0.434908   60.539303
 C   17.571369    2.416653   64.953765
 C   18.698312    4.311180   58.104654
 C   20.204516    4.550299   57.960873
 N   22.635133    4.461627   56.652416
 N   18.723204    4.169380   60.594586
 N   17.542072    2.605957   59.452937
 N   18.194741    3.359912   62.820622
 N   17.433912    2.396664   60.787953
 N   20.466506    5.245014   56.716980
 H   27.488401    4.399593   54.622115
 H   26.858860    2.870454   56.476495
 H   25.818969    5.986029   53.700737
 H   23.463116    6.922894   53.748469
 H   24.552846    2.926198   57.414118
 H   21.198086    6.874184   54.768266
 H   16.239267    0.648774   63.335200
 H   16.689975   -0.072400   59.857861
 H   15.491034   -0.312504   61.152932
 H   15.258578    0.950890   59.920293
 H   18.186984    3.248028   65.302933
 H   16.564051    2.517421   65.371729
 H   17.991919    1.477814   65.329588
 H   18.182987    5.280140   58.041417
 H   18.332918    3.687143   57.284662
 H   20.751894    3.604239   57.923028
 H   20.574922    5.103655   58.838707
 H   19.887453    6.049102   56.528227
