46 
6ke0_ligand_xtb.xyz
 C   -5.814362   -2.708143   -0.448894
 C   -6.608265   -1.590014   -0.199485
 C   -4.435638   -2.629746   -0.480385
 C   -6.052792   -0.344773    0.030433
 C   -3.853244   -1.391569   -0.253071
 C   -4.673375   -0.258954    0.001988
 C    1.739196   -0.369322   -0.036496
 C    3.681594   -0.214771   -0.821392
 C   -2.537932    0.235477    0.035945
 C    6.036857   -0.545903    0.433537
 C    4.902619   -0.703018    1.190995
 C    5.934269   -0.230547   -0.938336
 C   -0.229248    1.068004    0.322897
 C   -3.765927    2.165287    0.510449
 C   -2.255707    2.503881    0.427364
 C    4.852209   -1.039897    2.638193
 C    7.156273   -0.067654   -1.781990
 C   -1.931710    3.442721   -0.729424
 C    0.258489   -0.335322    0.033665
 N   -2.518339   -1.037735   -0.221499
 N    2.412750   -0.117813   -1.168576
 N    2.497130   -0.632181    1.019406
 N    4.777425   -0.070980   -1.541366
 N   -3.785538    0.770953    0.177262
 N    3.735940   -0.535592    0.545612
 N   -1.591538    1.205483    0.229175
 O    0.467837    2.009863    0.617295
 H   -6.294187   -3.660240   -0.620605
 H   -7.682435   -1.699134   -0.184681
 H   -3.820934   -3.494019   -0.672136
 H   -6.667357    0.521221    0.225808
 H    7.005250   -0.665791    0.891193
 H   -4.174863    2.334107    1.512978
 H   -4.345410    2.753810   -0.207715
 H   -1.882974    2.939258    1.360347
 H    4.309685   -0.261541    3.173181
 H    5.851619   -1.143029    3.049465
 H    4.298522   -1.967799    2.776505
 H    8.061039   -0.208642   -1.198223
 H    7.161223    0.924191   -2.228834
 H    7.132900   -0.788642   -2.596600
 H   -2.422301    4.400964   -0.579336
 H   -0.857822    3.601806   -0.775201
 H   -2.264278    3.012522   -1.671751
 H   -0.167630   -0.669192   -0.912725
 H   -0.097385   -0.998137    0.823921
