46 
6ke0_ligand_dft.xyz
 C   -5.968336   -2.594540   -0.588140
 C   -6.720544   -1.476890   -0.198642
 C   -4.582134   -2.540975   -0.681617
 C   -6.110614   -0.264370    0.106000
 C   -3.947888   -1.340476   -0.371835
 C   -4.725608   -0.221954    0.012719
 C    1.799117   -0.395085   -0.082074
 C    3.740355   -0.114412   -0.815699
 C   -2.573478    0.211160   -0.002199
 C    6.089607   -0.584631    0.429907
 C    4.950894   -0.863286    1.133830
 C    6.003925   -0.073373   -0.898755
 C   -0.216207    0.988941    0.325866
 C   -3.706444    2.089018    0.820612
 C   -2.219172    2.455214    0.549857
 C    4.861906   -1.398598    2.522412
 C    7.268800    0.217644   -1.657601
 C   -2.050758    3.401160   -0.634165
 C    0.310209   -0.395658   -0.012662
 N   -2.583068   -1.035342   -0.369925
 N    2.471889    0.021553   -1.176153
 N    2.533598   -0.800508    0.950751
 N    4.860490    0.155980   -1.509784
 N   -3.793907    0.779443    0.214615
 N    3.785476   -0.614847    0.477124
 N   -1.590114    1.145537    0.274547
 O    0.487522    1.928619    0.638182
 H   -6.481688   -3.522676   -0.819975
 H   -7.801071   -1.558801   -0.132761
 H   -3.998255   -3.404909   -0.981330
 H   -6.690198    0.603589    0.404488
 H    7.057414   -0.752503    0.888385
 H   -3.935841    2.036910    1.891236
 H   -4.385672    2.801374    0.344858
 H   -1.746744    2.879834    1.437199
 H    4.281194   -0.717833    3.152278
 H    5.859082   -1.529410    2.946636
 H    4.336476   -2.358753    2.523981
 H    7.924225    0.881134   -1.083186
 H    7.027268    0.686765   -2.612248
 H    7.823175   -0.708632   -1.847437
 H   -2.516871    4.367401   -0.415086
 H   -0.989064    3.563245   -0.831424
 H   -2.520964    2.980687   -1.529612
 H   -0.116918   -0.728703   -0.962324
 H   -0.038079   -1.103722    0.745781
