68 
6kjd_ligand_ani.xyz
 O   85.942814  125.284761  105.947958
 O   87.167175  127.995906  109.522182
 O   85.977129  127.433243  105.416171
 O   84.994288  127.713416  111.165778
 O   80.963667  127.174012  106.081847
 C   78.188958  125.523894  108.970798
 C   78.460921  126.422893  107.843820
 C   84.325193  127.835602  109.927703
 C   78.911045  125.512994  110.094843
 C   79.555382  127.448806  108.059363
 C   86.333038  126.559160  106.167221
 C   80.070999  126.440208  110.323144
 C   80.664897  126.866699  108.959819
 C   86.359405  127.729416  108.372578
 C   77.748174  126.349144  106.708459
 C   80.046847  128.078055  106.738691
 C   82.912343  127.290825  110.127036
 C   85.076519  127.058408  108.838822
 C   81.891360  127.778267  109.093475
 C   78.831146  128.432765  105.877611
 C   79.640545  127.611740  111.222516
 C   87.156830  126.850224  107.399705
 C   77.953562  127.228762  105.504484
 C   78.485450  126.419750  104.311480
 C   81.656717  127.679925  105.034627
 C   82.719978  126.730689  104.514870
 O   81.483936  128.795060  104.599504
 C   83.016806  127.035871  103.039563
 C   82.435580  125.253091  104.783858
 C   84.285419  126.354799  102.528077
 H   86.266672  124.697989  106.645257
 H   87.843224  128.639110  109.281084
 H   85.924783  127.921505  110.979288
 H   77.348446  124.844114  108.852180
 H   84.264799  128.901939  109.636142
 H   78.641091  124.843771  110.911638
 H   79.097720  128.296936  108.596762
 H   80.840776  125.876531  110.869852
 H   81.009820  125.945692  108.467303
 H   86.103259  128.672350  107.871636
 H   76.988233  125.573083  106.616412
 H   80.592749  129.000566  106.957888
 H   82.976034  126.192967  110.112908
 H   82.599897  127.563620  111.139067
 H   85.310083  126.062329  109.239129
 H   84.418366  126.911353  107.972931
 H   82.376413  127.845440  108.109947
 H   81.580679  128.803109  109.345199
 H   78.232865  129.137133  106.472058
 H   79.146036  128.967960  104.978888
 H   80.468358  128.296195  111.436290
 H   78.835229  128.193536  110.760307
 H   79.266682  127.235254  112.181233
 H   87.480802  125.940587  107.915307
 H   88.050856  127.402593  107.090093
 H   76.970073  127.620510  105.206708
 H   78.699316  127.074159  103.459043
 H   79.406550  125.890882  104.573270
 H   77.743456  125.678958  103.996688
 H   83.611558  127.015866  105.099309
 H   82.156581  126.730691  102.425418
 H   83.100454  128.122383  102.932869
 H   83.324666  124.653420  104.564213
 H   82.172977  125.085531  105.831093
 H   81.618523  124.871660  104.157968
 H   84.499791  126.659754  101.498728
 H   85.148622  126.621585  103.149183
 H   84.190437  125.262551  102.530705
