12 
6klk_ligand_ani.xyz
 N  -11.035378   93.275045   91.039114
 C  -11.823393   92.520025   90.189338
 N  -12.978168   93.169574   89.786825
 C  -13.422456   94.452144   90.125832
 C  -12.491752   95.133989   91.030111
 C  -11.364289   94.550644   91.448428
 O  -11.525682   91.399835   89.835869
 O  -14.461692   94.904195   89.697846
 F  -12.821463   96.368834   91.418690
 H  -10.186935   92.829096   91.351651
 H  -13.575573   92.641174   89.162744
 H  -10.675220   95.054446   92.117552
