67 
6kqi_ligand_ani.xyz
 C   22.528584  -10.218474   41.982406
 C   23.380516   -9.103249   42.583067
 C   22.864365   -7.701278   42.257030
 C   23.756154   -6.605633   42.845986
 C   23.387230   -5.173417   42.436287
 C   23.462236   -4.806920   40.946538
 C   24.855678   -4.827217   40.255370
 C   25.846523   -4.009326   41.089830
 C   24.699715   -4.131340   38.889902
 C   25.343803   -6.260681   40.018532
 C   26.546494   -6.767708   40.515522
 C   26.891411   -8.104066   40.331448
 C   26.087352   -8.999514   39.627068
 C   26.381725  -10.490436   39.528529
 C   25.591237  -11.220352   40.620157
 C   25.731541  -12.727568   40.567445
 C   27.205918  -13.115297   40.628450
 C   28.005855  -12.412540   39.531883
 C   27.874077  -10.880686   39.583436
 C   28.670181  -10.218053   38.448120
 C   30.189336  -10.362448   38.556816
 C   30.919556   -9.627275   37.444105
 C   24.882606   -8.477514   39.117217
 C   24.546863   -7.134706   39.278884
 O   24.991286  -13.246933   41.663755
 O   32.309764   -9.822459   37.628461
 O   23.955822   -9.243114   38.468895
 H   22.962606  -11.204809   42.188883
 H   21.509435  -10.206468   42.386108
 H   22.454688  -10.113874   40.891460
 H   24.411691   -9.194858   42.211097
 H   23.437890   -9.230021   43.673220
 H   21.837143   -7.584125   42.633338
 H   22.796778   -7.600491   41.166480
 H   24.804016   -6.814180   42.594988
 H   23.700240   -6.671096   43.942196
 H   24.007255   -4.470643   43.007781
 H   22.356102   -4.979293   42.766282
 H   23.073714   -3.784518   40.844075
 H   22.772538   -5.444808   40.377661
 H   26.044358   -4.474233   42.062546
 H   26.802532   -3.897970   40.565960
 H   25.448842   -3.004100   41.270807
 H   24.354435   -3.100119   39.026870
 H   25.655407   -4.099530   38.354386
 H   23.974744   -4.646774   38.251279
 H   27.230159   -6.131869   41.069297
 H   27.834600   -8.437769   40.755377
 H   26.026542  -10.854209   38.546728
 H   24.530102  -10.958645   40.566253
 H   25.944095  -10.878643   41.603618
 H   25.303064  -13.095122   39.618766
 H   27.592687  -12.830711   41.616864
 H   27.315193  -14.204993   40.544629
 H   29.059535  -12.705775   39.604911
 H   27.654348  -12.763446   38.548569
 H   28.281016  -10.549977   40.553839
 H   28.332232  -10.644862   37.490654
 H   28.421984   -9.149156   38.402721
 H   30.541631   -9.970076   39.519520
 H   30.489849  -11.416243   38.518341
 H   30.591795  -10.016171   36.465151
 H   30.663900   -8.554883   37.476454
 H   23.607110   -6.810472   38.837500
 H   25.097469  -14.206756   41.656481
 H   32.770173   -9.359917   36.919170
 H   24.271273  -10.152189   38.401597
