26 
6m7i_ligand_xtb.xyz
 C   20.276865   16.716275    9.648993
 C   22.731430   15.898082    9.657761
 C   21.531352   16.366683    9.081995
 C   25.357435   14.590411    5.067792
 C   24.576807   14.768903    6.191232
 C   23.864737   15.948761    6.394316
 C   23.990740   16.975764    5.457208
 C   24.758704   16.801803    4.317565
 C   25.431904   15.605735    4.124374
 C   21.807073   16.459175    7.710352
 N   23.100111   16.073868    7.560561
 N   23.652081   15.713719    8.749173
 N   19.917912   16.683382   10.960070
 N   18.644548   17.111934   11.034041
 N   18.268604   17.380787    9.861282
 N   19.226048   17.156521    8.971821
 N   20.920330   16.714037    6.727913
Cl   26.384900   15.395811    2.706166
Cl   23.245814   18.517604    5.719811
 H   22.945903   15.695844   10.688682
 H   25.902009   13.672271    4.918891
 H   24.508518   13.999906    6.944002
 H   24.844020   17.600118    3.597990
 H   20.443928   16.408204   11.772265
 H   20.033208   17.066249    7.074697
 H   21.244020   17.048152    5.836043
