31 
6m8a_ligand_ani.xyz
 C    2.238541    1.810496   -0.185394
 O    4.213749    3.059634   -0.323473
 C    3.632262    1.843014   -0.190661
 O    4.479122   -1.649889    0.196213
 C    4.391653    0.679017   -0.062754
 O    2.237595   -2.964325    0.328538
 C    3.746537   -0.548547    0.070122
 O    0.257686    0.581717   -0.042531
 C    2.335586   -0.614193    0.068322
 O   -4.376558    2.165562    0.681438
 C    1.621158    0.577907   -0.057060
 O   -5.993454    0.214200   -0.139715
 C    1.635289   -1.887449    0.192397
 C    0.197459   -1.786282    0.133634
 C   -0.427450   -0.592679   -0.007455
 C   -1.890433   -0.401826   -0.080173
 C   -2.459314    0.819952    0.310748
 C   -3.830367    0.988897    0.286692
 C   -4.652891   -0.061954   -0.152370
 C   -4.096571   -1.263426   -0.558117
 C   -2.716347   -1.436147   -0.516501
 H    1.656389    2.717397   -0.278734
 H    5.173406    2.955166   -0.314659
 H    3.845574   -2.409242    0.279718
 H    5.477114    0.700641   -0.062294
 H   -5.338390    2.087273    0.599003
 H   -6.485909   -0.553890   -0.453725
 H   -0.366400   -2.702654    0.234822
 H   -1.827943    1.638633    0.640386
 H   -4.737588   -2.072072   -0.903430
 H   -2.292037   -2.377120   -0.853431
