35 
6m8c_ligand_ani.xyz
 C   -5.701867    1.434732    0.195858
 O   -4.799563    0.768940    1.068059
 C   -3.850398    0.009906    0.440570
 C   -2.537965    0.448419    0.417948
 C   -4.185945   -1.226221   -0.133364
 O   -5.494759   -1.591695   -0.097560
 C   -3.187419   -2.017811   -0.692688
 C   -1.868230   -1.590362   -0.683583
 C   -1.527223   -0.346005   -0.135235
 C   -0.121794    0.085145   -0.127208
 O    0.767391   -0.956103   -0.108441
 C    2.103419   -0.727391    0.006284
 C    2.906381   -1.843730    0.163770
 C    4.281966   -1.649359    0.264166
 O    5.045887   -2.756223    0.427890
 C    4.845540   -0.373955    0.194748
 C    4.022175    0.734257    0.029434
 O    4.589033    1.937968   -0.041173
 C    2.617614    0.572496   -0.057265
 C    1.719450    1.701827   -0.202478
 O    2.083048    2.888363   -0.299816
 C    0.301593    1.374496   -0.219874
 O   -0.552624    2.410572   -0.352210
 H   -5.163578    2.125801   -0.466366
 H   -6.277629    0.723630   -0.404386
 H   -6.378809    2.005643    0.835897
 H   -2.306980    1.412189    0.855232
 H   -5.589355   -2.458859   -0.510605
 H   -3.448483   -2.980182   -1.132797
 H   -1.088326   -2.217106   -1.103919
 H    2.475390   -2.835029    0.208814
 H    5.973332   -2.495680    0.490595
 H    5.918540   -0.221286    0.264873
 H    3.873911    2.600849   -0.157418
 H    0.000912    3.206790   -0.420402
