34 
6m8d_ligand_ani.xyz
 C    6.533500   -0.591948    0.467960
 O    5.636428    0.414085    0.049313
 C    4.318779    0.107872    0.056395
 C    3.448961    1.144008   -0.352839
 C    2.085628    0.925107   -0.372630
 O    4.017272    2.328187   -0.706788
 C    3.783070   -1.119390    0.430523
 C    2.407920   -1.333374    0.394284
 C    1.546449   -0.318807   -0.006777
 C    0.087889   -0.546725   -0.061674
 O   -0.629071    0.609006   -0.011652
 C   -1.990678    0.566796    0.041914
 C   -2.638663    1.781027    0.193140
 C   -4.031662    1.773355    0.245038
 O   -4.642890    2.972465    0.401704
 C   -4.761291    0.588399    0.138719
 C   -4.086143   -0.619598   -0.021756
 O   -4.790812   -1.740981   -0.129342
 C   -2.674647   -0.644769   -0.066240
 C   -1.942655   -1.897280   -0.217094
 O   -2.518087   -2.989818   -0.343417
 C   -0.507007   -1.756209   -0.194691
 H    6.340699   -0.893042    1.506185
 H    6.475277   -1.475940   -0.180812
 H    7.529698   -0.154570    0.396164
 H    1.414480    1.724081   -0.677975
 H    3.314195    2.944454   -0.952934
 H    4.430898   -1.927416    0.751900
 H    2.020266   -2.297656    0.710932
 H   -2.080420    2.704336    0.270215
 H   -5.598880    2.840180    0.427407
 H   -5.846271    0.578775    0.176246
 H   -4.139020   -2.481266   -0.239279
 H    0.079651   -2.656276   -0.312216
