35 
6m8e_ligand_ani.xyz
 C    7.306185   24.544980   22.423792
 C    6.585178   25.733176   22.325107
 C    6.106767   26.382593   23.486538
 C    6.389704   25.800748   24.727235
 C    7.108544   24.626766   24.849189
 C    7.561142   24.001839   23.685332
 C    5.516158   27.554255   28.325657
 C    5.134864   27.934087   29.594017
 O    5.824654   27.631670   30.740310
 C    3.958894   28.677426   29.789772
 O    3.579960   29.043199   31.035796
 C    3.188169   29.031810   28.691311
 C    3.578131   28.666041   27.408639
 C    4.742835   27.921974   27.206800
 C    5.172634   27.493766   25.867567
 O    5.981378   26.386203   25.884676
 O    8.253452   22.854902   23.873132
 C    8.735219   22.185549   22.727946
 O    6.361845   26.233154   21.109087
 C    5.348716   27.617576   23.423769
 O    5.074928   28.226940   22.373286
 C    4.891177   28.140342   24.703344
 O    4.193842   29.295394   24.658507
 H    7.650322   24.078696   21.508651
 H    7.317083   24.200709   25.821698
 H    6.417728   26.965467   28.179326
 H    6.608689   27.112420   30.520689
 H    4.241111   28.703671   31.657810
 H    2.281213   29.605895   28.855774
 H    2.967048   28.957501   26.563553
 H    9.256329   21.300445   23.094896
 H    7.913976   21.877056   22.068563
 H    9.436425   22.812224   22.162294
 H    5.854406   27.067501   21.215882
 H    4.154293   29.547026   23.720057
