61 
6m8y_ligand_xtb.xyz
 C   -4.477905   -0.552186    0.167993
 O   -4.351154   -1.086505   -0.915347
 C   -5.668790   -0.768448    1.075356
 N   -3.569495    0.320391    0.662012
 C   -2.301841    0.580538    0.003294
 C   -1.300725   -0.405511    0.611771
 O   -0.952667   -0.274320    1.784310
 C   -1.844486    2.026514    0.244450
 C   -2.897767    3.011119   -0.275044
 C   -0.491152    2.242938   -0.427044
 C   -2.695792    4.428454    0.247741
 N   -0.883060   -1.431149   -0.133665
 C   -0.177352   -2.556633    0.472199
 C    1.345582   -2.321153    0.567045
 O    2.157606   -3.120514    0.148931
 C   -0.501331   -3.726441   -0.449886
 C   -0.573859   -3.053032   -1.817470
 C   -1.242485   -1.711972   -1.517390
 N    1.651168   -1.163435    1.172922
 C    3.005436   -0.732880    1.430608
 C    3.026578    0.616555    2.120254
 O    3.980575    1.057629    2.702022
 C    3.849809   -0.622727    0.133600
 C    3.221871    0.302551   -0.867566
 C    2.383876   -0.198902   -1.855095
 C    3.460379    1.670660   -0.821022
 C    1.800481    0.647230   -2.781227
 C    2.875486    2.518563   -1.744357
 C    2.045561    2.008632   -2.728184
 O    1.884693    1.292867    1.985012
 H   -6.398277   -1.392399    0.567734
 H   -5.349199   -1.264907    1.989506
 H   -6.124356    0.184009    1.335647
 H   -3.629464    0.610491    1.626286
 H   -2.455166    0.402639   -1.061548
 H   -1.726286    2.157429    1.325774
 H   -3.888424    2.664433    0.026630
 H   -2.870833    3.016857   -1.366718
 H   -0.141780    3.258613   -0.266521
 H   -0.566101    2.072602   -1.498725
 H    0.255353    1.564711   -0.022111
 H   -3.495101    5.075630   -0.105499
 H   -2.702425    4.439144    1.335628
 H   -1.751018    4.842746   -0.093590
 H   -0.544110   -2.694549    1.496391
 H   -1.461720   -4.167892   -0.184462
 H    0.277744   -4.484180   -0.401329
 H   -1.138151   -3.634319   -2.542818
 H    0.435363   -2.900699   -2.199725
 H   -0.875568   -0.916938   -2.171139
 H   -2.330808   -1.787288   -1.613287
 H    0.895817   -0.611946    1.572136
 H    3.514447   -1.454660    2.085712
 H    4.841681   -0.267027    0.417249
 H    3.932684   -1.626459   -0.283187
 H    2.207453   -1.262898   -1.904732
 H    4.120978    2.070987   -0.064616
 H    1.162420    0.242979   -3.554504
 H    3.074381    3.579490   -1.701972
 H    1.597352    2.670283   -3.454852
 H    1.940945    2.156011    2.424171
