50 
6m95_ligand_dft.xyz
 C   -4.197066    0.520935   -0.020794
 C   -4.718132   -0.721837   -0.386807
 C   -6.983152    0.739251   -1.194096
 C   -3.972176   -1.880835   -0.160302
 C   -2.161479   -0.551993    0.760992
 C    2.570046   -0.353087    0.779435
 C    3.708083   -0.373422   -1.506105
 C    7.065450    1.138015   -0.536593
 C    7.680052    0.077488    0.124937
 C    7.011199   -1.136770    0.244365
 C    1.257114    0.213707   -1.276240
 C   -3.093565    2.967798    0.785250
 C   -0.827186   -0.548706    1.459832
 C    1.457213    0.275343    1.616400
 C    2.637840    0.279344   -0.614847
 C    5.108224   -0.232723   -0.958642
 C    5.791516    0.981172   -1.072094
 C    5.736106   -1.287861   -0.294281
 C    0.165490    0.819881   -0.389954
 C   -2.927654    0.603785    0.555950
 C   -2.717446   -1.782411    0.421736
 N    0.176954    0.207378    0.927094
 O   -0.674138   -1.234161    2.463351
 O   -2.362723    1.774246    0.948324
 S   -6.310531   -0.938264   -1.137599
 H   -4.775453    1.421735   -0.175320
 H   -7.082286    1.167025   -0.192889
 H   -6.381590    1.396252   -1.827965
 H   -7.978563    0.646625   -1.634172
 H   -4.376180   -2.852857   -0.425564
 H    2.376849   -1.430671    0.683767
 H    3.527748   -0.238546    1.298702
 H    3.656665    0.079775   -2.504764
 H    3.462430   -1.436174   -1.631178
 H    7.581391    2.088487   -0.638505
 H    8.675352    0.197000    0.542509
 H    7.482468   -1.970401    0.756979
 H    1.001395   -0.835615   -1.478858
 H    1.270565    0.736848   -2.240729
 H   -3.312971    3.166108   -0.272004
 H   -4.031758    2.945829    1.353719
 H   -2.456684    3.762407    1.175045
 H    1.689739    1.333572    1.806818
 H    1.343061   -0.231970    2.573627
 H    2.903877    1.341220   -0.489280
 H    5.317840    1.812135   -1.590726
 H    5.217761   -2.238810   -0.196374
 H   -0.810501    0.675959   -0.852063
 H    0.324746    1.901971   -0.280289
 H   -2.144071   -2.680448    0.629209
