65 
6m9d_ligand_ani.xyz
 N    3.779349    2.521364    1.238922
 C    4.047218    1.147667    1.224205
 C    4.053772    3.323525    0.034165
 N    4.649795    0.613522    2.216029
 C    3.096354    1.233212   -1.071925
 C    3.967968    2.483526   -1.245011
 N    3.524079    0.486477    0.113193
 N    1.061659    2.020312    0.263489
 C    1.572816    1.529296   -1.073748
 C    0.725608    0.312023   -1.480446
 O   -0.069758    0.339742   -2.406160
 N    0.888832   -0.795243   -0.682004
 C   -0.292700   -1.575226   -0.374587
 C   -1.174944   -0.803410    0.629034
 O   -0.765639    0.183251    1.239223
 C    0.066895   -2.972168    0.139020
 C    1.059887   -3.739819   -0.746011
 C    0.618301   -3.779897   -2.209785
 C    1.250671   -5.152573   -0.195701
 N   -2.431415   -1.276522    0.786384
 C   -3.447883   -0.586816    1.560573
 C   -4.345877   -1.645010    2.186141
 O   -4.822523   -2.467084    1.130197
 C   -4.252596    0.416663    0.706640
 C   -3.433519    1.589390    0.215937
 C   -3.194528    2.681453    1.056262
 C   -2.882962    1.606564   -1.069237
 C   -2.454437    3.774393    0.617918
 C   -2.134246    2.694017   -1.508740
 C   -1.923996    3.787704   -0.670690
 H    4.207714    2.905066    2.072809
 H    3.328609    4.145736    0.010842
 H    5.048781    3.781813    0.110282
 H    4.732908   -0.393277    2.085059
 H    3.281553    0.578169   -1.926990
 H    4.970158    2.150149   -1.533841
 H    3.580785    3.085105   -2.073393
 H    4.002675   -0.382827   -0.079011
 H    1.858098    2.323571    0.875917
 H    0.486613    1.280064    0.753865
 H    0.425168    2.826333    0.095397
 H    1.357233    2.293366   -1.818426
 H    1.537813   -0.666996    0.088012
 H   -0.853374   -1.659224   -1.313099
 H   -0.859439   -3.557700    0.229150
 H    0.478144   -2.893996    1.156065
 H    2.026131   -3.219817   -0.701293
 H   -0.377441   -4.233297   -2.307376
 H    1.315609   -4.378211   -2.806807
 H    0.579688   -2.776563   -2.650250
 H    2.002308   -5.704853   -0.770836
 H    1.572815   -5.132027    0.851742
 H    0.310503   -5.716371   -0.246872
 H   -2.758098   -2.056259    0.232083
 H   -2.931455   -0.039375    2.353042
 H   -5.179161   -1.164369    2.722704
 H   -3.761465   -2.230792    2.910750
 H   -5.355230   -3.173636    1.513138
 H   -4.702434   -0.116896   -0.138764
 H   -5.084515    0.788547    1.321643
 H   -3.599250    2.681846    2.067062
 H   -3.041128    0.755238   -1.728849
 H   -2.292578    4.621427    1.280337
 H   -1.702120    2.685744   -2.506172
 H   -1.341901    4.642979   -1.012409
