40 
6m9l_ligand_ani.xyz
 C   22.178779   -3.800340  -20.308398
 C   22.472503   -2.599735  -20.960797
 C   20.953947   -0.887941  -21.968368
 C   20.060923    0.162612  -21.674936
 C   19.554909    0.459865  -23.823392
 C   18.993628    3.445126  -25.044974
 C   20.400015    4.981622  -26.270471
 C   20.008645    5.331605  -23.919853
 C   21.146327   -1.272661  -23.298462
 C   18.150737    2.184291  -25.013681
 C   19.601650    3.842816  -26.236071
 C   20.603612    5.727625  -25.113235
 C   19.206659    4.194454  -23.888659
 C   19.449901    0.335006  -26.092576
 C   24.242778   -4.755157  -21.035168
 C   20.413668   -0.569396  -24.229322
 C   23.697725   -2.521704  -21.628420
 C   24.592684   -3.578293  -21.677691
 C   23.047309   -4.885127  -20.349096
 F   25.093696   -5.793630  -21.078254
 F   24.023996   -1.372539  -22.242625
 N   18.951648    0.976056  -24.956543
 N   20.319678   -0.631462  -25.609808
 N   21.596951   -1.505696  -20.894123
 N   19.360795    0.851709  -22.574591
 O   19.170566    0.576621  -27.249509
 H   21.239736   -3.890379  -19.767392
 H   19.921764    0.455513  -20.636188
 H   20.863482    5.288218  -27.204642
 H   20.166288    5.910170  -23.012795
 H   21.823879   -2.073894  -23.578320
 H   17.484273    2.188085  -24.144949
 H   17.542320    2.106133  -25.919255
 H   19.446991    3.254144  -27.137906
 H   21.228477    6.617225  -25.141971
 H   18.746209    3.877108  -22.953917
 H   25.532322   -3.481865  -22.209164
 H   22.808836   -5.818600  -19.850690
 H   20.834632   -1.239346  -26.225820
 H   21.144063   -1.367239  -20.000964
