54 
6mck_ligand_ani.xyz
 C   66.463185   30.426395   62.784373
 C   67.486691   31.359796   62.927109
 O   67.070560   26.764954   55.404690
 C   67.082457   27.846052   55.965504
 C   67.551688   28.034981   57.375623
 C   67.003121   29.021098   58.183746
 C   67.439715   29.205242   59.503430
 C   68.423479   28.403669   60.048389
 C   68.934469   27.374236   59.252947
 C   68.534551   27.186007   57.915680
 C   69.308685   26.099995   57.405328
 C   70.145034   25.647488   58.380405
 C   71.123741   24.522694   58.253318
 N   69.920519   26.408239   59.538978
 C   70.503183   26.227194   60.796171
 N   69.758614   26.593236   61.841041
 C   70.289240   26.448900   63.053463
 N   69.505056   26.786641   64.112701
 C   68.126164   27.198094   63.939664
 C   67.932409   28.666803   63.589625
 C   68.948872   29.611219   63.730730
 C   68.727911   30.946142   63.399576
 C   66.688662   29.092932   63.111423
 C   71.612678   25.997077   63.229197
 C   72.255028   25.880937   64.590497
 O   73.644922   25.656803   64.514795
 C   73.955365   24.620362   63.609222
 C   73.678920   25.071682   62.177998
 C   72.279396   25.615961   62.074800
 N   71.726086   25.706299   60.854805
 N   66.628762   28.987477   55.350174
 H   65.493689   30.732401   62.395612
 H   67.314145   32.401353   62.669739
 H   66.208640   29.647892   57.788625
 H   67.006155   29.989250   60.118764
 H   68.786032   28.563059   61.054288
 H   69.223328   25.699144   56.403814
 H   72.150147   24.874537   58.389932
 H   70.948169   23.746564   59.004550
 H   71.028637   24.077626   57.258989
 H   69.806044   26.526510   65.037455
 H   67.676734   26.591530   63.143963
 H   67.593805   26.965745   64.869032
 H   69.923860   29.301160   64.097391
 H   69.532856   31.666993   63.514718
 H   65.884790   28.370289   62.983730
 H   72.141728   26.806932   65.168533
 H   71.779498   25.069516   65.171502
 H   73.361972   23.720897   63.843646
 H   75.013518   24.382260   63.750568
 H   73.807777   24.244832   61.472718
 H   74.394777   25.857070   61.901312
 H   66.448044   28.890176   54.361452
 H   66.965492   29.886661   55.658267
