49 
6mdq_ligand_dft.xyz
 C    2.571581   -1.512222   -0.354651
 C    4.082459   -1.397569   -0.168229
 C    4.582661   -0.023300   -0.561313
 O    5.692452    0.161655   -1.026734
 C    3.660150    1.092443   -0.282477
 C    2.412433    0.937560    0.191333
 C    1.598453    2.140430    0.590476
 C    0.197973    2.119089   -0.022461
 C   -0.524253    0.812535    0.299755
 C    0.311777   -0.395598   -0.189238
 C    1.763866   -0.430387    0.396119
 C   -0.435707   -1.733696   -0.016580
 C   -1.857528   -1.718425   -0.599574
 C   -2.668804   -0.545764   -0.046635
 C   -1.901852    0.753207   -0.351981
 C   -2.917806    1.871091   -0.068513
 C   -4.283209    1.235019   -0.443458
 C   -3.983634   -0.249005   -0.782584
 O   -4.999512   -1.152732   -0.399435
 C   -2.958576   -0.745372    1.450386
 C    1.764268   -0.737393    1.910872
 H    2.243108   -2.506544   -0.036131
 H    2.346593   -1.433563   -1.426806
 H    4.355394   -1.558499    0.883818
 H    4.620324   -2.147758   -0.754216
 H    4.076992    2.085754   -0.433508
 H    1.499802    2.145886    1.686067
 H    2.130996    3.057826    0.320392
 H   -0.378222    2.974864    0.347447
 H    0.274009    2.231950   -1.113317
 H   -0.650476    0.755787    1.390834
 H    0.436766   -0.240837   -1.274329
 H    0.128453   -2.536671   -0.501579
 H   -0.486784   -1.995640    1.046197
 H   -1.795607   -1.622871   -1.693294
 H   -2.357207   -2.671664   -0.391582
 H   -1.727476    0.754275   -1.441925
 H   -2.894110    2.154738    0.990325
 H   -2.706102    2.776504   -0.644524
 H   -4.760093    1.749043   -1.284369
 H   -4.985257    1.265973    0.396044
 H   -3.793355   -0.344516   -1.864803
 H   -5.793938   -0.934398   -0.899536
 H   -2.041454   -0.862067    2.033946
 H   -3.566350   -1.643422    1.587760
 H   -3.514700    0.093573    1.879516
 H    2.769547   -0.623799    2.328925
 H    1.437498   -1.763847    2.102676
 H    1.102623   -0.067314    2.467844
