28 
6mhb_ligand_dft.xyz
 C   -5.184906   -1.585834   -0.086110
 C   -1.790286    0.045750   -0.001896
 C    0.337960    0.613277    0.016299
 C   -0.212397    1.858279    0.086159
 O   -4.521292    0.738170    0.045462
 C   -4.198881   -0.432847   -0.021948
 C   -6.631813   -1.111216   -0.048700
 N   -2.875171   -0.813247   -0.046525
 S   -1.940563    1.776400    0.087993
 N   -0.579994   -0.418931   -0.030684
 C    1.776224    0.283081   -0.001234
 C    2.754754    1.268664   -0.165815
 C    4.105071    0.945575   -0.168152
 C    4.485210   -0.382519   -0.009295
Cl    6.184093   -0.798263   -0.013293
 C    3.533721   -1.383040    0.147658
 C    2.186372   -1.044806    0.149989
 H   -4.976159   -2.265059    0.750820
 H   -4.986495   -2.157708   -1.002089
 H    0.286334    2.814135    0.155582
 H   -6.835259   -0.555885    0.870143
 H   -6.844951   -0.447094   -0.889836
 H   -7.311339   -1.966617   -0.097740
 H   -2.625300   -1.791141   -0.105349
 H    2.468108    2.306190   -0.307608
 H    4.857219    1.715822   -0.298337
 H    3.844132   -2.415251    0.267635
 H    1.433450   -1.815634    0.269905
