38 
6mju_ligand_xtb.xyz
 C   30.796451  226.505318   -9.218423
 C   26.803487  228.970037   -9.969309
 C   27.456412  226.777829   -9.084119
 C   27.855502  226.181747   -7.903762
 C   26.564634  225.841672   -9.652836
 C   31.628136  224.127759  -10.730661
 C   32.620935  225.212247  -10.315481
 C   33.097127  227.306431   -9.215617
 C   32.828659  228.573256  -10.036991
 C   31.361090  228.814363  -10.018493
 C   30.421745  227.894103   -9.640528
 C   29.141420  228.504134   -9.797588
 C   27.811556  228.089293   -9.617426
 C   27.072561  230.250700  -10.455751
 C   28.373416  230.691880  -10.616083
 C   29.397638  229.808184  -10.294464
 N   32.172550  226.253737   -9.593865
 N   30.745031  229.971601  -10.404777
 N   27.223207  224.992484   -7.838420
 N   26.446806  224.775051   -8.893674
 O   32.311118  223.115743  -11.405342
 O   33.792169  225.084278  -10.636840
Cl   25.754832  231.291106  -10.855012
Cl   28.747330  232.272334  -11.207742
 H   30.705786  226.397918   -8.127307
 H   30.129569  225.781334   -9.683789
 H   25.773793  228.671241   -9.851977
 H   28.497335  226.532364   -7.122156
 H   26.037696  225.914696  -10.582260
 H   30.863110  224.559503  -11.392257
 H   31.136022  223.708027   -9.842733
 H   34.109098  226.938026   -9.387146
 H   32.959911  227.519657   -8.150976
 H   33.171047  228.423850  -11.065525
 H   33.377532  229.418976   -9.618198
 H   31.195215  230.803132  -10.748984
 H   27.273953  224.304352   -7.103865
 H   33.242121  223.408638  -11.449625
