42 
6mjw_ligand_xtb.xyz
 C   37.683631   13.817330   11.806323
 C   33.448759   10.210977   10.859134
 C   32.476837   10.014732   11.832247
 C   33.153818   11.124323    9.840789
 O   36.502221   16.905892    9.056750
 C   37.044610   16.039442   10.005578
 C   36.087556   14.865946   10.218065
 O   35.039327   14.853128    9.591286
 N   36.426607   13.910819   11.100463
 C   35.566151   12.746251   11.240831
 C   36.368944   11.500864   11.040534
 C   35.959006   10.140130   10.907975
 C   37.155881    9.382463   10.838121
 N   38.213748   10.238105   10.896170
 C   37.736584   11.514022   11.028509
 C   38.572594   12.738571   11.166702
 C   37.144944    7.994156   10.757699
Cl   38.634497    7.120199   10.669076
 C   35.915416    7.361523   10.764283
Cl   35.834131    5.639025   10.686252
 C   34.728033    8.095056   10.822075
 C   34.721050    9.477210   10.872555
 N   31.323238   10.655030   11.864272
 C   31.051814   11.530967   10.898005
 N   29.823958   12.120320   10.940825
 C   31.952325   11.791600    9.852586
 H   38.189569   14.780609   11.818846
 H   37.462197   13.526261   12.838846
 H   32.643933    9.319215   12.644736
 H   33.861076   11.279579    9.038778
 H   35.640374   16.517477    8.808716
 H   37.189810   16.577889   10.953153
 H   38.017281   15.671994    9.650943
 H   35.108691   12.743645   12.240065
 H   34.764581   12.840750   10.506276
 H   39.179707    9.958242   10.864924
 H   39.448791   12.551626   11.790579
 H   38.920572   13.076838   10.185596
 H   33.791506    7.560152   10.803588
 H   29.306069   12.007590   11.795372
 H   29.672191   12.960509   10.411363
 H   31.695972   12.498544    9.079117
