38 
6mll_ligand_xtb.xyz
 C   13.567414   11.019643    4.736329
 C   11.297331   10.165257    4.389272
 C   14.221396   12.247128    5.223696
 C   17.068534   14.205954    5.273755
 C   18.149180   13.349408    5.097740
 C   19.403207   13.874947    4.849339
 C   19.581389   15.246915    4.774878
 C   18.497500   16.095265    4.930933
 C   17.236142   15.582025    5.172500
 C   14.774169   14.129698    6.259439
 C   14.853495   15.285980    7.144475
 C   13.797965   16.192822    7.199254
 C   13.849098   17.272035    8.061966
 C   14.948585   17.453191    8.884020
 C   15.996186   16.547102    8.844609
 C   15.952323   15.468109    7.982805
 C   13.723428   13.250222    6.083188
 N   12.173202   11.148815    4.737296
 N    9.953943   10.389980    4.252003
 N    9.402156    9.205629    3.920254
 N   10.333913    8.361325    3.865755
 N   11.515830    8.895324    4.145668
 N   15.477863   12.514963    4.897541
 N   15.802447   13.641978    5.508189
 O   14.132141   10.023940    4.385372
 H   17.983746   12.284965    5.150363
 H   20.243520   13.211159    4.715014
 H   20.562381   15.655497    4.585628
 H   18.630361   17.163886    4.855007
 H   16.389386   16.243694    5.271971
 H   12.944597   16.054417    6.551283
 H   13.028653   17.973574    8.092395
 H   14.987396   18.296161    9.557262
 H   16.850419   16.679314    9.491538
 H   16.764913   14.756633    7.964160
 H   12.769240   13.303317    6.568796
 H   11.780174   12.051259    4.961279
 H    9.404376   11.227470    4.354027
