42 
6mnc_ligand_ani.xyz
 C   -3.558110   -5.223998   22.051094
 C   -5.764043   -4.712970   20.817966
 C   -4.949992   -4.388258   19.568650
 C   -4.679299   -2.879354   19.455636
 O   -6.761256   -4.777342   17.986115
 O   -0.425493   -4.528016   26.769072
 C   -5.581789   -4.824573   18.245863
 C   -4.471726   -5.293057   17.296284
 C   -3.171587   -5.196727   18.126909
 C   -3.675314   -5.255103   19.572829
 C   -2.768073   -4.928861   20.751621
 C   -4.921412   -4.497227   22.086386
 C   -1.469602   -5.732099   20.773138
 C   -0.572990   -5.245327   21.909226
 C   -1.304688   -5.053842   23.224425
 C   -2.703240   -4.990710   23.293362
 C   -0.540354   -4.903605   24.384366
 C   -1.137857   -4.681559   25.617919
 C   -2.527063   -4.608349   25.699035
 C   -3.283193   -4.762729   24.550373
 H   -3.784232   -6.305875   22.015862
 H   -6.671687   -4.098785   20.839503
 H   -6.094871   -5.759743   20.770394
 H   -4.144532   -2.494548   20.328944
 H   -4.089727   -2.636536   18.565055
 H   -5.631183   -2.341659   19.376544
 H    0.515966   -4.604076   26.565997
 H   -4.462612   -4.686489   16.382786
 H   -4.696404   -6.322674   16.994844
 H   -2.470466   -6.005359   17.890528
 H   -2.649132   -4.251247   17.933535
 H   -4.019888   -6.292911   19.726290
 H   -2.498978   -3.861776   20.733263
 H   -4.751105   -3.424045   22.245947
 H   -5.502482   -4.847119   22.945465
 H   -1.701706   -6.798304   20.911296
 H   -0.933425   -5.646309   19.818999
 H    0.268119   -5.933574   22.056825
 H   -0.124338   -4.281695   21.625597
 H    0.546900   -4.956571   24.313226
 H   -2.993869   -4.432348   26.663184
 H   -4.363267   -4.701651   24.645643
