32 
6mnp_ligand_xtb.xyz
 O   27.285961  101.825240  -23.924986
 C   26.223012  102.017200  -24.497670
 N   25.385250  103.066118  -24.078249
 C   25.871140  103.900914  -22.989904
 C   25.771072  103.193232  -21.686391
 N   24.953218  103.448170  -20.692675
 N   26.538817  102.134681  -21.326727
 N   26.154868  101.772093  -20.104270
 N   25.227370  102.555941  -19.748875
 C   25.679927  101.265690  -25.592481
 C   26.249173  100.156572  -26.280387
 C   27.596337   99.567878  -26.012517
 C   27.718919   98.189850  -26.659327
 C   27.226005   98.233048  -28.103781
 C   25.725502   98.530438  -28.142782
 C   25.424265   99.685491  -27.253198
 S   23.920212  100.567240  -27.361522
 C   24.415677  101.600286  -26.074039
 N   23.656887  102.604972  -25.594256
 C   24.164561  103.286953  -24.632070
 H   26.923203  104.134535  -23.189384
 H   25.281808  104.816651  -22.943317
 H   27.247292  101.672938  -21.886327
 H   28.357791  100.242400  -26.416091
 H   27.761963   99.511571  -24.935556
 H   28.758917   97.862529  -26.627293
 H   27.121099   97.468973  -26.097828
 H   27.764676   99.013673  -28.644299
 H   27.421552   97.281350  -28.599535
 H   25.399377   98.744456  -29.162766
 H   25.164547   97.654534  -27.799993
 H   23.584600  104.101387  -24.222505
