61 
6mo2_ligand_ani.xyz
 N  -57.055578   24.654390    9.483395
 C  -58.247123   24.392301    8.682063
 C  -57.945123   24.437709    7.202644
 C  -58.594165   23.581630    6.315079
 C  -58.337666   23.635247    4.952925
 C  -57.408581   24.547343    4.440428
 C  -56.784828   25.429082    5.327150
 C  -57.034432   25.362435    6.687421
 C  -57.086331   24.639307    2.988008
 N  -56.864884   25.892816    2.541740
 C  -56.780458   26.084828    1.246361
 C  -56.908059   25.010085    0.347886
 O  -56.885682   25.304049   -0.958025
 C  -56.999879   24.210970   -1.876542
 C  -56.851011   24.768460   -3.285578
 C  -56.849289   23.638213   -4.318533
 C  -56.795664   24.190525   -5.746597
 N  -57.842425   25.163386   -6.043985
 C  -57.863380   26.243160   -5.062181
 C  -57.962772   25.770456   -3.608648
 N  -57.020529   23.771962    0.758256
 C  -57.011039   23.554257    2.085402
 C  -56.905123   22.121343    2.462106
 C  -56.280405   21.691255    3.638318
 C  -56.219414   20.345973    3.951460
 C  -56.764252   19.383538    3.097661
 C  -57.355782   19.810441    1.907556
 C  -57.414430   21.154850    1.588629
 C  -56.709660   17.955232    3.434168
 C  -56.734282   16.879788    2.567849
 N  -56.660009   15.768781    3.332298
 N  -56.596015   16.027018    4.643955
 C  -56.622330   17.348627    4.714384
 H  -57.307317   24.707482   10.464757
 H  -56.400345   23.883473    9.388827
 H  -58.973442   25.180855    8.921175
 H  -58.744480   23.434742    8.914959
 H  -59.309052   22.857058    6.696090
 H  -58.839773   22.937160    4.288159
 H  -56.095777   26.169663    4.932651
 H  -56.524050   26.030107    7.376361
 H  -56.628513   27.093436    0.869820
 H  -57.977721   23.729004   -1.745564
 H  -56.226521   23.466856   -1.652528
 H  -55.885580   25.295051   -3.332114
 H  -57.767720   23.042759   -4.194665
 H  -56.004555   22.959003   -4.142587
 H  -56.855176   23.380603   -6.481856
 H  -55.829628   24.689552   -5.905086
 H  -58.742997   24.689403   -6.027558
 H  -56.936149   26.819163   -5.188652
 H  -58.688767   26.920084   -5.308415
 H  -57.917417   26.621956   -2.922370
 H  -58.938147   25.284937   -3.449298
 H  -55.859698   22.413893    4.332273
 H  -55.736944   20.032964    4.872125
 H  -57.782061   19.081280    1.223200
 H  -57.858418   21.476244    0.651115
 H  -56.766588   16.824729    1.488452
 H  -56.650976   14.810267    3.025010
 H  -56.600589   17.829818    5.683673
