89 
6mqm_ligand_ani.xyz
 N   -1.687101   -0.906370    1.465600
 C   -2.793936   -0.057387    1.986464
 C   -3.647812    0.303158    0.764523
 O   -4.390963   -0.549072    0.281502
 C   -2.234676    1.104640    2.792636
 N   -3.490044    1.531852    0.209526
 C   -3.942363    1.769563   -1.163182
 C   -2.921626    1.163024   -2.151847
 O   -2.156022    1.863246   -2.821702
 C   -4.232618    3.251207   -1.439144
 C   -3.162515    4.206194   -0.899292
 C   -5.603766    3.627080   -0.872841
 N   -2.905088   -0.187300   -2.213259
 C   -1.790215   -0.907221   -2.790516
 C   -1.279188   -1.966373   -1.814540
 O   -1.993383   -2.439582   -0.934734
 N   -0.003935   -2.399103   -2.020520
 C    0.607739   -3.357478   -1.118140
 C    1.279427   -2.639646    0.064380
 O    1.595587   -1.453707    0.029670
 C    1.583449   -4.342091   -1.812785
 C    3.007072   -3.800126   -2.044733
 C    0.958961   -4.926002   -3.080847
 C    3.123660   -2.513779   -2.863319
 N    1.560632   -3.424624    1.134167
 C    2.263957   -2.916804    2.295846
 C    1.517267   -1.752810    2.957341
 O    0.316874   -1.799441    3.191615
 N    2.280816   -0.666404    3.255016
 C    1.712784    0.578117    3.731619
 C    1.684189    1.693303    2.671387
 O    1.684659    2.869448    3.008965
 C    2.392184    1.070415    5.003572
 N    1.616615    1.308000    1.367000
 C    1.472278    2.283424    0.314660
 C    0.271832    1.924186   -0.554353
 O   -0.551894    1.074500   -0.268871
 C    2.767859    2.499714   -0.502410
 C    3.888579    2.990091    0.412038
 C    3.190535    1.238476   -1.255770
 O    0.192405    2.663044   -1.653132
 H   -1.160889   -1.355351    2.230059
 H   -2.060376   -1.626996    0.825993
 H   -1.039996   -0.318375    0.919509
 H   -3.448694   -0.672937    2.610009
 H   -1.740402    0.709963    3.688304
 H   -3.027406    1.784349    3.114837
 H   -1.487429    1.666383    2.221514
 H   -2.701578    2.083815    0.518552
 H   -4.869826    1.197368   -1.264799
 H   -4.257546    3.352121   -2.530211
 H   -2.155653    3.949553   -1.241379
 H   -3.156107    4.229349    0.197926
 H   -3.376095    5.226194   -1.237949
 H   -5.625490    3.492167    0.215605
 H   -5.834408    4.675850   -1.087000
 H   -6.399796    3.012649   -1.307964
 H   -3.488499   -0.710223   -1.564857
 H   -0.993855   -0.195651   -3.036991
 H   -2.083362   -1.406759   -3.725510
 H    0.625859   -1.787071   -2.522644
 H   -0.221588   -3.956436   -0.729247
 H    1.692764   -5.176513   -1.103732
 H    3.577648   -4.593953   -2.543988
 H    3.489181   -3.645237   -1.070889
 H    1.570652   -5.750600   -3.462888
 H   -0.044860   -5.315860   -2.878325
 H    0.869559   -4.180777   -3.877349
 H    2.592347   -2.586907   -3.819862
 H    2.724790   -1.661467   -2.306236
 H    4.173639   -2.296029   -3.085724
 H    1.236189   -4.377762    1.139762
 H    3.276878   -2.594894    2.027641
 H    2.349095   -3.733381    3.018549
 H    3.260325   -0.670405    3.014570
 H    0.663277    0.343010    3.939699
 H    3.442820    1.316901    4.815406
 H    2.345456    0.293929    5.771706
 H    1.896671    1.972766    5.368172
 H    1.597828    0.325822    1.099894
 H    1.227280    3.233761    0.810707
 H    2.533297    3.282282   -1.233878
 H    3.573404    3.849112    1.014510
 H    4.201368    2.196982    1.100768
 H    4.762845    3.286274   -0.177196
 H    2.395149    0.876282   -1.918579
 H    4.073230    1.440858   -1.871386
 H    3.442861    0.429940   -0.559661
 H   -0.602867    2.379040   -2.166736
