30 
6msa_ligand_xtb.xyz
 C  -19.402275   11.274071  -35.448791
 C  -20.252696   12.769247  -33.808864
 C  -21.274336   14.506076  -35.755141
 C  -21.428016   14.804911  -34.364465
 C  -18.978052   10.533721  -36.547938
 C  -19.099578   10.750263  -38.011360
 C  -20.616897   13.362851  -36.145296
 C  -21.720272   15.205335  -37.979093
 C  -22.266724   16.330944  -32.757540
 C  -20.924520   13.946013  -33.422988
 C  -20.097511   12.481287  -35.187540
 C  -18.961305   10.512164  -34.310241
 N  -19.788138   11.968685  -32.808860
 N  -18.356695    9.454250  -36.025455
 N  -19.171242   10.887210  -33.030301
 N  -18.327326    9.407204  -34.702609
 O  -21.816786   15.421742  -36.593558
 O  -22.088030   15.962415  -34.103629
 H  -20.147941   10.805046  -38.303981
 H  -18.616815   11.683782  -38.300076
 H  -18.629371    9.933503  -38.555280
 H  -20.490093   13.124647  -37.188526
 H  -22.223309   16.051322  -38.444377
 H  -20.676866   15.177964  -38.310655
 H  -22.220977   14.278095  -38.277402
 H  -22.802925   17.278105  -32.781840
 H  -22.860951   15.589617  -32.213865
 H  -21.306997   16.468263  -32.249118
 H  -21.019244   14.128779  -32.365976
 H  -17.926113    8.704485  -36.548234
