38 
6msc_ligand_ani.xyz
 N  -21.667201   14.397255  -35.445089
 N  -20.635296   12.732410  -32.489679
 C  -19.955798   11.424660  -36.946942
 C  -20.427414   12.327746  -35.976594
 C  -21.142629   13.491363  -36.341111
 C  -20.242952   12.166934  -34.584785
 C  -20.852796   13.116751  -33.767304
 C  -21.126707   13.424377  -31.326739
 C  -17.007827    8.880843  -34.942629
 C  -19.297971    8.794465  -33.522409
 C  -22.236138   15.186127  -39.386640
 C  -20.193994   11.717430  -38.261331
 C  -18.833899   10.037482  -33.948577
 C  -17.613773   10.100907  -34.639017
 C  -18.590860    7.653521  -33.875637
 C  -16.924566   11.388377  -35.023729
 C  -20.878568   12.871399  -38.679802
 C  -21.346269   13.754932  -37.735055
 C  -19.648835   11.249380  -33.675925
 F  -19.757050   10.881461  -39.216924
 N  -21.537863   14.212119  -34.169533
 N  -19.932041   11.588653  -32.425306
 N  -17.465245    7.682692  -34.587515
 O  -22.013059   14.889072  -38.020455
 H  -19.411518   10.533995  -36.654954
 H  -20.771521   12.897493  -30.440246
 H  -20.761487   14.455355  -31.338868
 H  -22.220282   13.453618  -31.349677
 H  -16.078429    8.883982  -35.513465
 H  -20.211721    8.729082  -32.938159
 H  -22.778509   16.131186  -39.396225
 H  -21.289960   15.301447  -39.929843
 H  -22.843465   14.410673  -39.869834
 H  -18.946609    6.669667  -33.576002
 H  -17.555585   12.013004  -35.662774
 H  -16.671837   11.978071  -34.136650
 H  -16.001325   11.168340  -35.565223
 H  -21.016001   13.024730  -39.743355
