61 
6mum_ligand_ani.xyz
 N   -7.851654  -26.231783   28.000600
 C   -7.188603  -25.448272   27.068397
 N   -6.049890  -24.973296   27.530541
 C   -5.936126  -25.480961   28.799142
 C   -4.974339  -25.379628   29.823946
 N   -5.168319  -26.002201   30.979408
 C   -6.294494  -26.724766   31.128855
 N   -7.276293  -26.902957   30.262009
 C   -7.045703  -26.262744   29.107854
 C   -9.165937  -26.856115   27.947777
 C   -7.683607  -25.219715   25.716113
 O   -3.873412  -24.666484   29.601980
 C   -2.941098  -24.503280   30.685201
 C   -3.423045  -23.489853   31.727708
 N   -2.177885  -22.916840   32.221109
 C   -1.017678  -23.275457   31.400744
 C   -1.654882  -23.888755   30.155295
 C   -2.017901  -22.060991   33.266937
 O   -0.912173  -21.614216   33.545330
 C   -3.261881  -21.640391   34.045261
 C   -2.890413  -21.299677   35.489527
 C   -4.097493  -20.720190   36.213693
 O   -4.617911  -19.589569   35.547991
 C   -5.051683  -19.900070   34.240396
 C   -3.907855  -20.415427   33.376542
 C   -7.263444  -24.221257   24.834666
 N   -7.941003  -24.439543   23.679242
 N   -8.761403  -25.500623   23.741025
 C   -8.611236  -25.977865   24.959366
 C   -6.297407  -23.077559   24.968041
 C   -7.914714  -23.677213   22.439236
 C   -9.092751  -22.721746   22.303034
 H   -6.405002  -27.218860   32.091051
 H   -9.555392  -26.920949   28.964819
 H   -9.841039  -26.247717   27.344402
 H   -9.105067  -27.871535   27.542687
 H   -2.760273  -25.471297   31.160823
 H   -4.071870  -22.743134   31.249978
 H   -3.996694  -23.989031   32.514020
 H   -0.380533  -23.986054   31.942497
 H   -0.420389  -22.382571   31.199837
 H   -1.915695  -23.106156   29.433481
 H   -1.010839  -24.616885   29.653456
 H   -3.993909  -22.459390   34.051199
 H   -2.529617  -22.189540   36.018641
 H   -2.071641  -20.572267   35.473635
 H   -4.880370  -21.494286   36.305041
 H   -3.833258  -20.388305   37.221922
 H   -5.475538  -18.979270   33.829769
 H   -5.855552  -20.655916   34.283708
 H   -3.153085  -19.627058   33.266972
 H   -4.277302  -20.662098   32.372808
 H   -9.156296  -26.870328   25.246013
 H   -6.810393  -22.111582   24.858082
 H   -5.804964  -23.098093   25.941902
 H   -5.517998  -23.124546   24.195012
 H   -7.918701  -24.409346   21.628449
 H   -6.967940  -23.131936   22.392348
 H   -9.034814  -22.198485   21.343929
 H  -10.035123  -23.274127   22.341407
 H   -9.091472  -21.975795   23.105148
