53 
6n3l_ligand_xtb.xyz
 C   -4.820657    0.686162   -0.065261
 C   -4.214514   -0.568712   -0.135248
 C   -4.991167   -1.708233   -0.161583
 C   -6.376739   -1.611833   -0.115356
 C   -6.214888    0.775468   -0.022285
 C    0.644812    1.141442   -0.207028
 C    3.480899    0.540255    0.329206
 C    4.777953    0.112934    0.025117
 C    5.232484   -0.985380    0.736586
 C    7.481303   -1.218514   -0.293412
 C    8.675161   -2.100810   -0.192320
 C   10.020608   -1.468292   -0.457620
 C   -2.889575    4.516890    0.070991
 N   -2.186993    3.268166   -0.016685
 C   -2.735796    2.005813   -0.065970
 N   -4.091583    1.858915   -0.035986
 C   -6.988072   -0.364447   -0.048488
 C   -7.241054   -2.833933   -0.163007
 F   -8.223714   -2.806628    0.758340
 F   -7.865966   -2.972702   -1.352826
 F   -6.567832   -3.974921    0.037596
 N   -1.846960    1.053483   -0.140632
 C   -0.629764    1.684840   -0.139865
 C    1.706803    2.027208   -0.188060
 O    3.024225    1.615066   -0.318449
 N    6.474833   -1.568802    0.576361
 O    7.406799   -0.289520   -1.064716
 C    9.429786   -2.379265   -1.471063
 N    4.478545   -1.592055    1.665030
 C    3.280088   -1.094156    1.865878
 N    2.735006   -0.064574    1.249486
 C    1.515897    3.411132   -0.121470
 C    0.250051    3.959218   -0.059966
 C   -0.820060    3.083747   -0.064871
 H   -3.138825   -0.621660   -0.167550
 H   -4.521685   -2.678071   -0.214816
 H   -6.691432    1.743882    0.031772
 H    0.789912    0.077127   -0.265915
 H    5.373577    0.610355   -0.717924
 H    8.623793   -2.889971    0.546060
 H   10.858417   -1.806734    0.132119
 H   10.017821   -0.410816   -0.672565
 H   -3.532692    4.668352   -0.801096
 H   -3.495377    4.563308    0.980788
 H   -2.161079    5.323819    0.103548
 H   -4.630153    2.710987    0.018562
 H   -8.064486   -0.294840   -0.013553
 H    6.608646   -2.360825    1.191624
 H    9.028711   -1.936403   -2.369652
 H    9.846906   -3.365761   -1.601937
 H    2.670313   -1.580123    2.616244
 H    2.387028    4.046578   -0.122118
 H    0.118725    5.029539   -0.008697
