53 
6n3l_ligand_ani.xyz
 C   15.710680  135.646534   -2.223006
 C   16.935514  135.335920   -1.625212
 C   18.114021  135.524654   -2.334861
 C   18.090419  136.019311   -3.633312
 C   15.691042  136.135965   -3.534844
 C   14.606029  135.470898    3.239327
 C   14.808212  134.772459    6.183458
 C   15.105715  135.194813    7.477918
 C   16.066323  134.449825    8.139891
 C   16.122109  135.701052   10.310168
 C   16.822751  135.668138   11.629616
 C   16.011479  136.115919   12.821272
 C   11.781561  134.826240   -0.716265
 N   12.897539  135.141849    0.148305
 C   14.201975  135.380793   -0.239749
 N   14.473639  135.447444   -1.588876
 C   16.871452  136.326430   -4.233925
 C   19.358663  136.228093   -4.403168
 F   19.373180  135.499817   -5.537647
 F   19.503860  137.515639   -4.775625
 F   20.451516  135.890095   -3.696613
 N   15.034660  135.525140    0.757551
 C   14.244102  135.401926    1.892837
 C   13.603342  135.302732    4.177406
 O   13.834396  135.453713    5.540037
 N   16.510002  134.707904    9.435093
 O   15.281643  136.546991   10.055576
 C   17.071866  137.007198   12.280423
 N   16.668820  133.383172    7.579394
 C   16.284701  133.098180    6.349406
 N   15.386189  133.738206    5.596492
 C   12.263074  135.087568    3.815624
 C   11.899183  135.000239    2.482139
 C   12.907466  135.158572    1.533844
 H   16.956450  134.958203   -0.609807
 H   19.065077  135.286202   -1.867278
 H   14.743889  136.375000   -4.011979
 H   15.637556  135.635168    3.532632
 H   14.618562  136.044809    7.940246
 H   17.558178  134.881362   11.774775
 H   14.982281  136.389808   12.608934
 H   16.181532  135.608703   13.766034
 H   10.949126  134.488261   -0.097354
 H   11.452881  135.702249   -1.287927
 H   12.040756  134.017198   -1.408424
 H   13.674676  135.624076   -2.178316
 H   16.853401  136.710885   -5.248855
 H   17.213872  134.054573    9.745149
 H   17.992586  137.130933   12.842320
 H   16.745079  137.871504   11.709854
 H   16.763269  132.238923    5.884695
 H   11.522775  134.992740    4.602905
 H   10.864935  134.826973    2.195721
