51 
6n4e_ligand_ani.xyz
 C   14.410626   32.549669  -17.713992
 C   15.873470   30.539403  -17.823254
 C   13.568343   30.346126  -16.743026
 C   12.707304   28.147063  -15.783544
 C   11.230361   30.177135  -15.737429
 C   12.446384   31.071206  -15.979270
 C    9.589950   28.216888  -13.805877
 C    8.466903   27.227541  -13.691156
 C    7.787447   27.177183  -12.443721
 C    6.386446   25.509112  -13.144854
 C    5.319941   24.626899  -12.841028
 C    4.869119   23.763822  -13.804063
 C    3.059072   23.001940  -12.498434
 C    5.455666   23.725395  -15.097441
 C    6.484461   24.570289  -15.400941
 C    6.977391   25.488165  -14.432428
 C    8.041202   26.381175  -14.686733
 C   14.801056   31.258050  -16.995942
 O   15.372972   31.691101  -15.758317
 C   13.929083   29.039715  -16.011145
 C   11.610874   28.880309  -15.017219
 N   10.458935   28.012643  -14.827965
 O    9.717358   29.137320  -13.009375
 N    6.802423   26.362823  -12.164837
 O    3.840926   22.871227  -13.619713
 F    2.013073   22.192746  -12.674974
 F    3.731153   22.584910  -11.400056
 H   13.759937   33.169321  -17.091738
 H   15.312870   33.131615  -17.923331
 H   13.903612   32.343006  -18.664615
 H   16.259696   29.648265  -17.316999
 H   15.475941   30.234448  -18.798094
 H   16.718720   31.214905  -17.991696
 H   13.175576   30.069530  -17.737070
 H   12.301777   27.822958  -16.754381
 H   12.996871   27.242691  -15.234500
 H   10.477638   30.701340  -15.138806
 H   10.758558   29.920455  -16.697284
 H   12.852062   31.423463  -15.020628
 H   12.116562   31.961713  -16.525775
 H    8.108666   27.861951  -11.660581
 H    4.925816   24.673068  -11.833206
 H    2.718119   24.032798  -12.337472
 H    5.059008   23.015790  -15.817561
 H    6.942671   24.554197  -16.387535
 H    8.475926   26.387326  -15.686779
 H   15.742948   30.915130  -15.316172
 H   14.686394   28.476379  -16.566581
 H   14.372490   29.284476  -15.032696
 H   11.975349   29.147476  -14.017672
 H   10.354854   27.197840  -15.411094
