30 
6n55_ligand_xtb.xyz
 N    0.937912    0.012377    0.509726
 C    1.288853   -0.962273   -0.416110
 O    0.475074   -1.576770   -1.069067
 N    2.630930   -1.160084   -0.561852
 C    3.684621   -0.514943    0.093747
 O    4.827732   -0.808240   -0.150957
 C    3.215316    0.479149    1.040340
 C    1.901446    0.682593    1.215095
 C   -0.466408    0.243433    0.789949
 C   -1.289943    0.740802   -0.423608
 C   -2.710997    0.335076    0.010793
 N   -1.194151    2.146466   -0.635613
 O   -3.302396    1.291895    0.845680
 C   -2.457852   -0.943328    0.826845
 N   -0.211844    2.772382   -0.874389
 O   -1.077231   -0.937533    1.206981
 C   -2.775665   -2.223028    0.036337
 N    0.584653    3.532955   -1.088206
 O   -2.312980   -2.180984   -1.281081
 H    2.891676   -1.872903   -1.236167
 H    3.950837    1.032320    1.596857
 H    1.530571    1.407459    1.925602
 H   -0.516917    1.008506    1.585104
 H   -1.006969    0.179181   -1.321514
 H   -3.343363    0.121745   -0.859724
 H   -3.340836    2.132629    0.372387
 H   -3.062346   -0.909192    1.740647
 H   -2.350462   -3.071791    0.586688
 H   -3.860625   -2.340997   -0.020000
 H   -1.341904   -2.147454   -1.270306
