53 
6n5g_ligand_xtb.xyz
 C    5.550993   -0.517651    0.483186
 C   -1.231833   -2.083672    0.581060
 C   -4.787918   -0.666580    1.025899
 C   -5.745127   -1.590320    0.549490
 C   -8.609762    0.366710   -0.257631
 C   -8.156357    2.680508    0.230958
 C   -6.443508    1.040268    0.648981
 O    0.999362    0.840461   -1.779728
 C    0.975242   -0.256616   -1.258834
 N    2.053054   -0.790325   -0.578341
 C    3.330494   -0.258695   -0.447267
 C    3.727754    0.943592   -1.033456
 C    5.016633    1.402831   -0.863417
 C    5.924848    0.674879   -0.108806
 O    7.213385    1.246215   -0.003747
 C    8.172208    0.610109    0.624229
 F    7.942992    0.402398    1.936966
 F    8.461701   -0.606591    0.121863
 F    9.290937    1.325769    0.548484
 C    4.257068   -0.975066    0.308798
 N   -0.126681   -1.062769   -1.344520
 C   -0.374501   -2.314593   -0.666774
 C   -2.559475   -1.435344    0.179752
 C   -3.421150   -1.140324    1.418294
 N   -6.941110   -1.275732    0.147730
 C   -7.316045    0.019572    0.181424
 C   -9.016865    1.671447   -0.231743
 C   -6.895962    2.374462    0.662848
 C   -5.155742    0.653761    1.072497
 C   -2.279565   -0.160885   -0.619650
 C   -1.361745   -0.455366   -1.806501
 H    6.236450   -1.102147    1.075425
 H   -0.697775   -1.425721    1.270868
 H   -1.411710   -3.035076    1.084789
 H   -5.497940   -2.644936    0.507824
 H   -9.254161   -0.423772   -0.608954
 H   -8.500649    3.704301    0.241912
 H    1.929295   -1.675115   -0.112199
 H    3.019072    1.506431   -1.616585
 H    5.336638    2.328674   -1.311709
 H    3.968820   -1.908441    0.771140
 H   -0.923870   -2.957620   -1.365133
 H    0.550276   -2.835726   -0.416149
 H   -3.106955   -2.135040   -0.462884
 H   -3.510569   -2.054476    2.010852
 H   -2.925834   -0.383166    2.029903
 H  -10.007876    1.938300   -0.568595
 H   -6.228644    3.146884    1.018924
 H   -4.469112    1.409063    1.431984
 H   -1.793253    0.575245    0.024468
 H   -3.214457    0.268196   -0.982404
 H   -1.849952   -1.144070   -2.503300
 H   -1.105387    0.464260   -2.332308
