18 
6n69_ligand_ani.xyz
 C   16.100206   -5.120596    3.844368
 C   14.780265   -4.541935    3.805330
 C   12.267579   -3.462136    3.891867
 C   10.964747   -2.903787    3.948012
 C   10.344375   -2.479493    2.803527
 C   12.251344   -3.126910    1.465684
 C   12.916253   -3.574300    2.637890
 C   14.215036   -4.136456    2.622881
 N   17.159648   -5.585897    3.881936
 C   14.038304   -4.383081    5.013708
 N   12.841091   -3.870017    5.065486
 C   10.994970   -2.592424    1.549050
 H   10.495588   -2.831999    4.923968
 H    9.345965   -2.052094    2.850139
 H   12.756093   -3.216362    0.506015
 H   14.758107   -4.245667    1.686246
 H   14.482425   -4.703554    5.956675
 H   10.484005   -2.249292    0.653219
