42 
6n77_ligand_ani.xyz
 C    5.869754  -22.631373   22.343060
 C    4.650854  -27.498366   22.541190
 C    5.150068  -21.575496   22.898580
 C    3.919972  -21.210964   22.370778
 C    6.960658  -26.837074   23.496373
 C    3.394050  -21.873820   21.271643
 C    4.123433  -22.897523   20.673763
 C    5.372999  -23.253449   21.179915
 C    5.705994  -24.883833   19.474186
 C    5.885008  -27.779752   23.160837
 C    5.832328  -29.167624   23.406802
 N    8.044061  -22.246784   23.412207
 N    6.665486  -25.547576   23.133267
 C    7.107459  -23.097904   22.996291
 N    4.705081  -29.730348   23.001205
 O    8.003693  -27.168366   24.041908
 N    4.103350  -26.358197   22.056354
 C    2.899676  -26.456971   21.527148
 C    2.166520  -27.667917   21.442575
 C    2.738763  -28.806767   21.928212
 N    3.985964  -28.701971   22.472386
 C    7.474561  -24.435571   23.340727
 C    8.707237  -24.330883   23.945548
 N    9.002163  -23.008570   23.951349
 C   10.201590  -22.402751   24.491212
 O    6.175632  -24.189731   20.614000
Cl    3.018811  -19.910877   23.098375
 H    5.553869  -21.058300   23.764265
 H    2.424003  -21.585102   20.877500
 H    3.711650  -23.404272   19.807178
 H    6.524381  -25.541212   19.177121
 H    4.825988  -25.487148   19.721606
 H    5.476038  -24.200236   18.646503
 H    6.594918  -29.776789   23.875240
 H    5.774983  -25.386294   22.667623
 H    2.473861  -25.532063   21.138719
 H    1.179914  -27.686177   21.000266
 H    2.303126  -29.797930   21.928272
 H    9.366225  -25.083781   24.358656
 H   10.106382  -21.325245   24.357858
 H   10.303545  -22.641088   25.554230
 H   11.083950  -22.768906   23.958071
