39 
6n79_ligand_ani.xyz
 C   22.389889  198.917946   17.701378
 C   19.123811  192.376487   16.099681
 C   20.513336  198.938487   14.815924
 C   22.218421  196.587112   18.784743
 C   21.253420  191.142865   17.400849
 C   21.728314  194.269025   19.412147
 C   22.264639  194.209788   20.719905
 C   21.341960  192.967691   19.106978
 C   20.755914  192.351232   17.904997
 C   20.705400  190.580840   16.260350
 C   19.643626  191.190100   15.602547
 N   21.951170  199.586333   16.647486
 N   21.183075  198.688758   15.976861
 C   21.929456  197.586677   17.749662
 N   21.620640  195.371168   18.565825
Cl   21.351266  189.087887   15.637653
 C   19.672520  192.950877   17.242395
 O   19.200204  194.149671   17.737467
 C   17.841162  194.298442   17.872839
 F   17.636797  195.289658   18.748585
 F   17.285698  194.672098   16.692367
 N   21.695248  192.242004   20.205788
 N   22.224950  192.973769   21.196563
 O   22.929513  196.827435   19.751633
 C   19.784102  197.917560   14.281088
 C   21.134179  197.456616   16.596841
 N   20.420859  196.430332   16.081368
 C   19.771383  196.673491   14.958339
 H   23.036097  199.407536   18.418597
 H   18.299556  192.864096   15.591158
 H   20.618108  199.938104   14.413451
 H   22.091651  190.654773   17.889519
 H   22.666605  195.027230   21.300208
 H   19.223603  190.733504   14.712505
 H   21.019954  195.258200   17.754022
 H   17.349538  193.382850   18.218093
 H   21.498571  191.266518   20.377439
 H   19.228678  198.051721   13.362189
 H   19.191687  195.850121   14.548560
