45 
6n7a_ligand_dft.xyz
 C   -4.337769    1.338007   -0.275743
 C    2.943627   -2.595573    0.541212
 C   -3.037738    0.894635   -0.298252
 C   -2.871544   -0.519117   -0.346561
 C    2.169841    0.090272    0.272757
 C   -1.923344    1.897969   -0.273940
 C    0.505288    2.071207   -0.092826
 C    0.725954    3.424334   -0.239108
 C    1.789138    1.507097    0.112335
 C    3.236078   -0.420682   -0.463157
 C    3.616036   -1.751163   -0.327657
 N   -5.454170    0.549574   -0.287163
 N   -1.746067   -1.248582   -0.385945
 C   -5.303631   -0.751367   -0.329249
 N   -0.681670    1.352208   -0.188392
Cl    4.952113   -2.368630   -1.275714
 C    1.883026   -2.096897    1.294996
 C    1.497606   -0.762049    1.171974
 O    0.500151   -0.196214    1.891890
 C   -0.290357   -1.015834    2.720894
 N    2.727497    2.454502    0.078170
 N    2.068759    3.595938   -0.137464
 C    2.787236    4.849452   -0.116323
 O   -2.134383    3.103324   -0.320615
 C   -4.023274   -1.352007   -0.365083
 C   -3.508656   -2.649632   -0.420021
 N   -2.174078   -2.521028   -0.426651
 C   -1.187143   -3.575427   -0.569775
 H   -4.516499    2.408460   -0.245879
 H    3.247132   -3.631845    0.643112
 H    0.037330    4.234906   -0.409826
 H    3.762544    0.236019   -1.146425
 H   -6.209237   -1.356012   -0.338909
 H   -0.604045    0.343528   -0.122920
 H    1.383314   -2.754293    1.997602
 H   -0.772798   -1.815330    2.144865
 H    0.299876   -1.450084    3.537753
 H   -1.058052   -0.363042    3.136946
 H    2.237864    5.586437   -0.705565
 H    2.904040    5.216633    0.908065
 H    3.772161    4.689292   -0.556335
 H   -3.984133   -3.618477   -0.459808
 H   -0.912375   -3.687323   -1.621438
 H   -0.300645   -3.295757    0.001197
 H   -1.602691   -4.510909   -0.192230
