42 
6n7b_ligand_ani.xyz
 C  -22.074548    3.283688   -1.637063
 C  -29.319244    5.438020   -1.669096
 C  -20.896964    3.817707   -1.112026
 C  -20.310314    4.935721   -1.684908
 C  -26.381846    2.613819   -0.379269
 C  -20.865262    5.528065   -2.808258
 C  -22.018532    4.989252   -3.366804
 C  -22.620239    3.869243   -2.795717
 C  -24.282560    3.814405   -4.502709
 C  -27.336345    3.658067   -0.835228
 C  -28.693086    3.377787   -0.861163
 N  -21.934110    1.117768   -0.524791
 N  -25.108657    2.774370   -0.858558
 C  -22.691534    2.121197   -0.967643
 N  -29.662024    4.222090   -1.272938
 O  -26.717053    1.692437    0.348896
 C  -26.989090    4.966304   -1.231354
 N  -25.814140    5.652814   -1.287623
 N  -25.965398    6.931493   -1.702480
 C  -27.250703    7.071147   -1.944165
 C  -27.975338    5.870131   -1.659587
 C  -24.057064    1.883243   -0.623526
 C  -24.065315    0.664489    0.017558
 N  -22.778478    0.251125    0.042083
 C  -22.276165   -0.997067    0.577166
 O  -23.743871    3.288333   -3.304105
Cl  -18.856399    5.599910   -0.993922
 H  -30.120227    6.098031   -1.996135
 H  -20.450560    3.352301   -0.237917
 H  -20.396704    6.402218   -3.250524
 H  -22.436431    5.451571   -4.254287
 H  -25.169280    3.214667   -4.715763
 H  -24.573285    4.865774   -4.382748
 H  -23.572364    3.723572   -5.334023
 H  -29.024752    2.394916   -0.531294
 H  -24.981962    3.375842   -1.660492
 H  -24.918230    5.374644   -0.912930
 H  -27.641578    8.012338   -2.302143
 H  -24.873748    0.090518    0.449567
 H  -21.249647   -0.828693    0.904663
 H  -22.892641   -1.298087    1.427517
 H  -22.296313   -1.785172   -0.182260
