52 
6n8x_ligand_ani.xyz
 C   -3.011220    0.058876   -0.433022
 C   -3.387247   -0.834576    0.559603
 C   -4.648152   -1.438884    0.399278
 C   -1.471770   -0.124050    1.126762
 N   -5.394325   -1.125385   -0.667375
 N   -3.727954    0.397417   -1.510645
 C   -0.563239    5.377393   -0.405268
 C   -0.339888    3.966996   -0.944562
 C   -1.202690    2.927693   -0.232798
 C   -0.995081    1.516017   -0.777104
 N   -1.766929    0.509673   -0.063342
 C   -4.892778   -0.239193   -1.540692
 N   -5.105710   -2.337388    1.295665
 N   -2.414793   -0.933531    1.535245
 C   -0.189940    0.128549    1.868868
 C    1.073841   -0.210745    1.087868
 C    2.161867    0.664258    1.093494
 C    1.153373   -1.414392    0.391202
 C    2.313035   -1.737887   -0.315705
 O    2.505863   -2.901846   -0.987866
 C    1.464180   -3.852224   -0.951398
 C    3.382351   -0.836928   -0.367901
 O    4.476259   -1.106494   -1.140794
 C    5.475161   -1.848307   -0.458961
 C    3.313186    0.352883    0.366124
 O    4.426540    1.129782    0.312456
 C    4.365346    2.384767    0.952049
 H   -1.612544    5.676776   -0.511726
 H   -0.310435    5.434808    0.659892
 H    0.050939    6.113014   -0.934737
 H    0.720983    3.696034   -0.834475
 H   -0.554749    3.948554   -2.022054
 H   -2.264872    3.187011   -0.332621
 H   -0.972276    2.944967    0.841419
 H    0.058178    1.229109   -0.734921
 H   -1.305966    1.465380   -1.824486
 H   -5.532342   -0.015184   -2.391874
 H   -4.581769   -2.491985    2.142416
 H   -6.048150   -2.682909    1.213856
 H   -0.247960   -0.466322    2.787514
 H   -0.150018    1.181829    2.175940
 H    2.106413    1.588550    1.655910
 H    0.311091   -2.099076    0.416761
 H    1.258917   -4.177914    0.076660
 H    0.541910   -3.452307   -1.393370
 H    1.809144   -4.703401   -1.540060
 H    5.842131   -1.294287    0.414456
 H    5.086970   -2.823669   -0.139904
 H    6.293922   -1.995271   -1.166995
 H    3.539818    2.992922    0.556764
 H    4.242657    2.274524    2.037434
 H    5.314669    2.880321    0.743978
