52 
6n8y_ligand_dft.xyz
 C   -3.031793    0.345077   -0.485108
 C   -3.611192   -0.395850    0.537001
 C   -4.952053   -0.769678    0.342899
 C   -1.617087   -0.012127    1.164169
 N   -5.575440   -0.393121   -0.781104
 N   -3.617876    0.729900   -1.624446
 C    1.252949    4.608492   -0.491926
 C    0.811198    3.266428   -1.070959
 C   -0.356134    2.651383   -0.300618
 C   -0.750970    1.295249   -0.878086
 N   -1.742838    0.588580   -0.077312
 C   -4.880567    0.317989   -1.681143
 N   -5.627959   -1.521858    1.245909
 N   -2.713927   -0.613681    1.560637
 C   -0.366505    0.029324    1.992602
 C    0.889254   -0.350577    1.235929
 C    1.977395    0.515943    1.204177
 C    0.923325   -1.553297    0.532081
 C    2.047757   -1.881193   -0.226970
 O    2.185255   -3.019856   -0.944040
 C    1.095212   -3.915400   -0.972896
 C    3.136857   -0.999445   -0.289847
 O    4.205316   -1.284406   -1.087614
 C    5.216316   -2.037416   -0.437962
 C    3.105270    0.191534    0.443366
 O    4.210494    0.967825    0.339114
 C    4.220126    2.199362    1.024647
 H    0.439801    5.341926   -0.528977
 H    1.552745    4.503717    0.558386
 H    2.103151    5.020880   -1.044559
 H    1.653863    2.561665   -1.058244
 H    0.531113    3.393082   -2.124588
 H   -1.225001    3.320822   -0.317145
 H   -0.065875    2.536543    0.750604
 H    0.129194    0.656618   -0.991471
 H   -1.205280    1.421804   -1.864523
 H   -5.432103    0.594551   -2.576755
 H   -5.235967   -1.636393    2.166872
 H   -6.626468   -1.597211    1.133025
 H   -0.541382   -0.657783    2.826240
 H   -0.246700    1.028162    2.429268
 H    1.932157    1.448132    1.756105
 H    0.061104   -2.210214    0.568224
 H    0.865090   -4.303464    0.027504
 H    0.198738   -3.442197   -1.392474
 H    1.403404   -4.739343   -1.617162
 H    5.625172   -1.488144    0.419046
 H    4.830079   -3.008066   -0.104081
 H    6.005148   -2.196163   -1.175635
 H    3.418014    2.862174    0.674852
 H    4.126948    2.059823    2.109463
 H    5.184668    2.657068    0.802425
