55 
6n9p_ligand_ani.xyz
 N   -0.053057    4.465497    1.325645
 C   -0.937688    3.562644    0.908582
 C   -0.576810    2.333393    0.299130
 C    0.792146    2.086184    0.164693
 C   -1.609669    1.364419   -0.159487
 C   -3.682718    0.887375   -1.332227
 C   -1.512955    0.003915    0.162078
 C   -5.499063   -1.751698   -0.488171
 C   -6.745890   -1.623820    1.560496
 C   -6.261200   -2.850985   -0.882961
 C    2.463709    0.636217   -0.759642
 C    4.410677    1.030673   -2.094339
 C    4.396719   -0.786575   -0.528538
 O    7.188894   -1.649005   -0.408130
 C    6.294647   -2.278326    0.127694
 C    6.583578   -3.536031    0.926745
 C    7.109418   -3.173030    2.318810
 N    4.972977   -1.903324    0.109241
 C    3.087627   -0.452752   -0.169476
 C    3.113246    1.385727   -1.739005
 C    5.067459   -0.040323   -1.500204
 O    1.156909    0.892421   -0.397571
 N   -2.269554    3.904817    1.077374
 C    1.241941    4.181075    1.180468
 C    1.725592    3.013053    0.618363
 C   -2.711071    1.787015   -0.919056
 C   -3.581582   -0.446496   -0.961235
 C   -2.493855   -0.896281   -0.219559
 O   -4.551808   -1.326918   -1.391409
 C   -5.740424   -1.125793    0.733581
 C   -7.504119   -2.723649    1.180320
 C   -7.257132   -3.335555   -0.047200
 H   -4.537338    1.206236   -1.919247
 H   -0.653526   -0.345992    0.724629
 H   -6.934460   -1.140609    2.515927
 H   -6.057377   -3.305907   -1.848168
 H    4.932965    1.613090   -2.848326
 H    7.346981   -4.089824    0.373674
 H    5.692941   -4.170352    0.995694
 H    8.008411   -2.554385    2.234734
 H    6.362412   -2.608491    2.887292
 H    7.360464   -4.073421    2.887945
 H    4.329794   -2.465368    0.646367
 H    2.550249   -1.030185    0.577549
 H    2.620779    2.241085   -2.191163
 H    6.081435   -0.297929   -1.774860
 H   -2.381161    4.692221    1.701199
 H   -2.891373    3.136571    1.290039
 H    1.934706    4.939007    1.540454
 H    2.791116    2.827088    0.543601
 H   -2.800055    2.837843   -1.181182
 H   -2.416620   -1.948296    0.039512
 H   -5.149976   -0.266735    1.038631
 H   -8.284308   -3.103505    1.834372
 H   -7.846081   -4.195318   -0.356775
