36 
6nel_ligand_dft.xyz
 O    5.036820   -1.371684    0.041698
 C    3.807448   -1.304956    0.032780
 C    2.969988   -2.496220    0.042205
 O    3.646110   -3.653478    0.069550
 C    1.616463   -2.400021    0.024051
 C    0.966765   -1.119985    0.008442
 C   -0.517814   -1.079462    0.039432
 C   -1.206490   -0.309739    0.982002
 C   -2.594229   -0.294014    1.005099
 C   -3.325898   -1.052065    0.087395
 C   -4.824326   -1.059057    0.044923
 O   -5.453460   -1.319616   -0.947128
 O   -5.464065   -0.753336    1.195220
 C   -2.644337   -1.814633   -0.861795
 C   -1.257337   -1.836702   -0.876735
 C    1.735051    0.013193   -0.017289
 C    1.242771    1.409490   -0.081197
 C    0.302366    1.795538   -1.042936
 C   -0.151411    3.105398   -1.107453
 C    0.351503    4.032002   -0.204739
 F   -0.081897    5.297040   -0.263681
 C    1.289330    3.686877    0.756025
 C    1.730567    2.369687    0.812035
 N    3.111172   -0.122382    0.001608
 H    4.587978   -3.393274    0.077060
 H    1.016002   -3.303719    0.051352
 H   -0.648625    0.286659    1.696610
 H   -3.094843    0.347400    1.726805
 H   -4.838630   -0.734895    1.931214
 H   -3.219242   -2.381446   -1.586453
 H   -0.736007   -2.432749   -1.620508
 H   -0.078085    1.061040   -1.745054
 H   -0.879518    3.416686   -1.847902
 H    1.654198    4.438260    1.447181
 H    2.446984    2.082365    1.577246
 H    3.682955    0.709915   -0.073850
