36 
6nel_ligand_ani.xyz
 O    9.208313   20.003054   -8.351985
 C    9.683031   20.786930   -9.171207
 C    9.790334   22.216179   -8.878664
 O    9.336710   22.561240   -7.666892
 C   10.321740   23.078612   -9.776813
 C   10.780034   22.617587  -11.049250
 C   11.485041   23.570241  -11.943105
 C   12.693586   23.221524  -12.564067
 C   13.362939   24.129066  -13.368386
 C   12.824342   25.400459  -13.581110
 C   13.490236   26.411740  -14.439808
 O   13.063648   27.523857  -14.655371
 O   14.648450   25.976518  -14.978853
 C   11.617277   25.752577  -12.973840
 C   10.962225   24.848682  -12.154914
 C   10.596201   21.294093  -11.379668
 C   10.803944   20.716766  -12.719088
 C   10.312181   21.364170  -13.859113
 C   10.489994   20.813757  -15.121154
 C   11.182126   19.618747  -15.235972
 F   11.363422   19.087415  -16.457269
 C   11.694985   18.954818  -14.131302
 C   11.491027   19.505668  -12.874355
 N   10.144487   20.414382  -10.402947
 H    9.033439   21.719752   -7.273100
 H   10.431842   24.127602   -9.517210
 H   13.095194   22.220562  -12.421194
 H   14.299484   23.859065  -13.844730
 H   14.979674   26.718855  -15.510115
 H   11.215612   26.745328  -13.149158
 H   10.022943   25.132790  -11.684440
 H    9.794264   22.314712  -13.752024
 H   10.110184   21.298135  -16.014446
 H   12.228748   18.018912  -14.264412
 H   11.894627   19.001846  -11.998727
 H   10.005714   19.441360  -10.648310
