51 
6nfi_ligand_xtb.xyz
 C  -23.292128   -6.137491  -19.780629
 C  -19.893657   -6.066268  -20.779361
 C  -19.671265   -6.108281  -19.408065
 C  -18.445224   -5.693443  -18.918146
 C  -16.309310   -4.880670  -18.969277
 N  -14.557228   -4.391010  -17.783118
 C  -16.152564   -5.341857  -14.607018
 C  -15.719196   -4.903330  -13.232026
 C  -15.964022   -3.586845  -12.829354
 C  -16.663371   -2.616377  -13.734342
 C  -14.896531   -4.047908  -10.721528
 C  -15.039619   -5.784103  -12.386677
 C  -14.729630   -7.193573  -12.800242
 C  -18.888470   -5.605884  -21.654782
 O  -19.225259   -5.623254  -22.981093
 S  -22.274253   -7.391097  -20.591144
 O  -21.704352   -8.242998  -19.591924
 O  -23.030495   -7.977942  -21.654041
 N  -21.117201   -6.447575  -21.327343
 C  -17.945320   -5.661782  -17.552090
 C  -16.681760   -5.174622  -17.590573
 N  -15.090760   -4.434299  -19.038063
 C  -15.445094   -4.812805  -16.899560
 N  -15.199681   -4.876326  -15.591735
 C  -15.550918   -3.175177  -11.569843
 C  -14.640081   -5.341912  -11.132156
 C  -17.441913   -5.216962  -19.801405
 C  -17.657912   -5.174653  -21.161469
 C  -18.250423   -5.241461  -23.923760
 H  -22.651556   -5.521427  -19.164502
 H  -23.766381   -5.554520  -20.557793
 H  -24.032381   -6.646309  -19.176741
 H  -20.430676   -6.503823  -18.754855
 H  -17.133414   -4.921375  -14.850439
 H  -16.239028   -6.433053  -14.660517
 H  -17.696016   -2.922105  -13.904795
 H  -16.674876   -1.625610  -13.287878
 H  -16.167073   -2.552981  -14.701237
 H  -14.579939   -3.717659   -9.743588
 H  -14.188553   -7.218139  -13.744711
 H  -14.117656   -7.679083  -12.044526
 H  -15.644612   -7.774603  -12.915458
 H  -21.127634   -6.492595  -22.333770
 H  -18.516944   -5.991290  -16.700920
 H  -14.270815   -4.627455  -15.285985
 H  -15.741953   -2.160134  -11.253923
 H  -14.118356   -6.019989  -10.472873
 H  -16.877908   -4.820103  -21.814527
 H  -18.721697   -5.364732  -24.897644
 H  -17.954996   -4.196146  -23.793603
 H  -17.364901   -5.880965  -23.864951
