44 
6nji_ligand_ani.xyz
 C  -20.248407  -14.445550  100.358706
 C  -21.550920  -13.920664   98.258963
 C  -21.601933  -12.936502   97.263258
 C  -22.661326  -12.879098   96.373221
 C  -23.691059  -13.822228   96.426332
 C  -22.575830  -14.867134   98.327381
 C  -23.621859  -14.806476   97.412392
 C  -25.851659  -12.665092   95.738149
 C  -24.846934  -13.778279   95.455430
 C  -23.373447  -15.889461  102.636155
 C  -20.956331  -15.445155  102.243597
 C  -18.791443  -14.843914  102.028603
 C  -17.388315  -14.812842  102.580116
Cl  -26.042357  -16.272621  102.890517
 C  -24.386771  -16.447634  103.400942
 C  -24.105635  -17.146403  104.570007
 C  -22.781352  -17.279710  104.976671
 C  -21.752868  -16.724157  104.225859
 C  -22.048043  -16.032791  103.050056
 N  -19.739791  -15.410948  102.785641
 N  -21.266875  -14.989376  101.026178
 N  -18.988061  -14.339346  100.815464
 C  -17.307051  -14.467916  104.067877
 N  -20.432468  -13.917505   99.110930
 O  -25.220120  -11.425122   95.475596
 H  -20.802454  -12.201194   97.203791
 H  -22.699921  -12.090030   95.628577
 H  -22.547099  -15.649004   99.079479
 H  -24.409494  -15.556205   97.467014
 H  -26.733324  -12.799239   95.091534
 H  -26.188807  -12.728434   96.784149
 H  -25.377962  -14.738042   95.469048
 H  -24.475435  -13.634423   94.432844
 H  -23.607692  -15.339849  101.729053
 H  -16.951072  -15.806302  102.408160
 H  -16.818874  -14.107909  101.966124
 H  -24.914947  -17.576254  105.151301
 H  -22.553168  -17.821289  105.890740
 H  -20.716906  -16.815281  104.538725
 H  -16.266767  -14.510288  104.406831
 H  -17.687630  -13.460379  104.269209
 H  -17.896697  -15.176101  104.658792
 H  -19.605403  -13.448704   98.771439
 H  -25.800493  -10.720147   95.785148
