43 
6njj_ligand_ani.xyz
 C    5.340530  -13.413018   47.552822
 C    5.660678  -13.471166   49.038344
 C    6.923019  -13.104644   49.504698
 C    7.170353  -13.194398   50.866863
 C    8.522473  -12.800608   51.424543
 C    3.886247  -13.153092   47.240876
 C    1.157060  -12.674784   46.737457
 C    1.734285  -13.902258   46.416801
 C    3.309234  -11.918579   47.547369
 C    3.082611  -14.139287   46.667616
 C    1.963142  -11.681662   47.293001
 O    0.375738  -11.608143   44.217251
 C    5.097808  -14.011747   51.323206
 C    4.154161  -14.524824   52.348072
 C   -0.289129  -12.401525   46.422718
 C    4.284002  -14.108362   53.673398
 C    3.394880  -14.566622   54.637219
 C    2.273170  -15.882340   52.979487
 C    4.739099  -13.926419   49.972913
 C    2.380198  -15.456826   54.298687
 C    3.145564  -15.425475   52.001540
 C   -0.487522  -11.838449   45.026318
 O   -1.795088  -11.614316   44.781727
 N    6.291800  -13.617674   51.769062
 F    9.292665  -12.228339   50.480525
 F    8.403273  -11.928951   52.435025
 F    9.188125  -13.867990   51.890454
Cl    1.016659  -17.007055   52.544795
 H    5.643368  -14.357047   47.081322
 H    5.959392  -12.629625   47.097475
 H    7.698059  -12.751119   48.834003
 H    1.121158  -14.678238   45.962568
 H    3.923744  -11.137143   47.991422
 H    3.517467  -15.106507   46.418464
 H    1.528116  -10.711938   47.526742
 H   -0.723452  -11.682398   47.127868
 H   -0.894557  -13.313213   46.494886
 H    5.089023  -13.425803   53.929043
 H    3.495449  -14.232081   55.666006
 H    3.726179  -14.163124   49.665248
 H    1.682990  -15.822792   55.045346
 H    3.049893  -15.796243   50.984710
 H   -1.838864  -11.258175   43.879109
