23 
6npi_ligand_ani.xyz
 C  -18.125166    1.665266   -6.763309
 C  -16.249055    4.634757  -11.218266
 C  -16.712017    4.037564  -10.053028
 C  -17.265466    2.758039  -10.086409
 C  -17.266729    2.027607  -11.287816
 C  -16.841967    2.664223  -12.454568
 C  -16.329162    3.954258  -12.430062
 C  -17.672663    0.592162  -11.444745
 O  -17.439098   -0.173487  -10.364206
 O  -18.130318    0.133684  -12.467052
 N  -17.858503    2.257424   -8.895217
 C  -19.171879    1.869097   -8.748757
 C  -19.368802    1.494208   -7.446003
 C  -17.225305    2.145532   -7.677718
 H  -17.919755    1.457630   -5.720591
 H  -15.835731    5.639145  -11.179718
 H  -16.682850    4.573827   -9.107635
 H  -16.917049    2.106076  -13.382955
 H  -15.986329    4.424241  -13.347851
 H  -17.757359   -1.061234  -10.597663
 H  -19.842560    1.886420   -9.595939
 H  -20.298517    1.137686   -7.020111
 H  -16.175720    2.387878   -7.590382
