23 
6npi_ligand_dft.xyz
 C   -3.297769   -0.607176    0.507023
 C    2.111641   -2.219216   -0.059521
 C    0.744507   -1.973873   -0.059397
 C    0.266542   -0.665783   -0.025725
 C    1.156216    0.417714    0.012653
 C    2.527865    0.149951   -0.020973
 C    3.006081   -1.152416   -0.049862
 C    0.783139    1.880423    0.120275
 O   -0.426238    2.201919    0.596757
 O    1.570202    2.746850   -0.167008
 N   -1.144690   -0.468032   -0.047307
 C   -1.865666    0.066292   -1.097124
 C   -3.195466    0.001350   -0.776248
 C   -2.026126   -0.897913    0.927604
 H   -4.205095   -0.804101    1.060152
 H    2.475624   -3.241532   -0.083894
 H    0.028405   -2.788217   -0.103627
 H    3.207023    0.995146   -0.011938
 H    4.075703   -1.335005   -0.063750
 H   -0.968595    1.412859    0.750607
 H   -1.354311    0.452031   -1.966560
 H   -4.009937    0.353995   -1.392601
 H   -1.653488   -1.355224    1.832531
