62 
6nrf_ligand_xtb.xyz
 N   23.222492  -11.510838    6.946655
 N   19.966207  -13.642161    9.462210
 C   26.668804   -3.353589   11.302104
 N   21.566961  -12.679264   10.691761
 N   20.976876  -11.607632    8.669314
 C   28.192255   -7.233842    6.934549
 C   27.051247   -8.185043    6.674102
 O   27.593766   -4.167393    6.886001
 C   27.097447   -5.747423   11.472356
 C   26.766160   -4.525131   12.045533
 C   25.889310   -7.720674    6.069440
 C   26.901245   -3.353706    9.943091
 C   27.241067   -4.561330    9.337233
 C   27.557323   -4.953640    7.994496
 C   27.827521   -6.285950    8.026178
 C   24.898798   -9.903947    6.239751
 C   24.826475   -8.573572    5.842661
 O   23.404935  -10.993089    4.759720
 C   23.773729  -10.830124    5.909388
 C   23.380505  -11.188633    8.347135
 C   22.051296  -10.662971    8.908802
 C   20.878478  -12.621958    9.583593
 C   21.094792  -13.779581   11.366828
 C   21.469344  -14.310793   12.593010
 C   20.816424  -15.449029   13.025372
 C   19.815501  -16.053474   12.268133
 C   19.428987  -15.540605   11.042198
 C   20.078594  -14.402375   10.607818
 C   20.829975  -11.896258    7.255310
 C   22.145783  -12.443027    6.686022
 C   26.061835  -10.373187    6.840082
 C   27.126926   -9.517319    7.055275
 O   27.690216   -6.779703    9.301130
 C   27.338436   -5.744114   10.098142
 C   27.167945   -6.944433   12.362192
 O   27.018937   -6.864147   13.564487
 N   27.397848   -8.122190   11.740129
 H   19.281199  -13.766459    8.738194
 H   26.407259   -2.432802   11.800442
 H   29.086775   -7.793149    7.217099
 H   28.403895   -6.641217    6.043665
 H   26.583198   -4.514994   13.109152
 H   25.827990   -6.685511    5.767407
 H   26.823552   -2.442692    9.366648
 H   23.932610   -8.217024    5.353185
 H   23.654980  -12.095170    8.897979
 H   24.159565  -10.438717    8.475037
 H   22.136579  -10.514950    9.984424
 H   21.784850   -9.721968    8.418723
 H   22.243321  -13.842867   13.179700
 H   21.086081  -15.884942   13.976182
 H   19.330718  -16.941381   12.645740
 H   18.652945  -16.008587   10.454454
 H   20.576091  -10.959629    6.750017
 H   20.021965  -12.608045    7.087626
 H   22.076365  -12.577599    5.605102
 H   22.383511  -13.399965    7.165827
 H   26.137450  -11.412725    7.124592
 H   28.028504   -9.893213    7.517557
 H   27.453366   -8.953036   12.304982
 H   27.535610   -8.187278   10.747435
 H   27.408181   -3.257933    7.144632
