51 
6nsp_ligand_xtb.xyz
 C   -6.570991    0.037530    1.157943
 C   -5.539879   -0.862910    0.564227
 C   -5.737511   -2.200182    0.339566
 C   -4.727576   -3.003308   -0.230201
 C   -3.529738   -2.462903   -0.579508
 C   -4.291263   -0.316022    0.203745
 C   -0.799106    2.338889   -1.170158
 C   -0.004199    3.469721   -1.140313
 C   -1.942114    3.095336    0.801787
 C   -2.252231   -0.332360   -0.628477
 C    0.105503   -0.758587   -0.412124
 C    2.710436    1.195869   -0.161536
 C    3.489015    2.325353    0.012532
 C    4.636466   -0.179507    0.213184
 C    2.750937   -2.457338    0.136268
 N   -3.324563   -1.138894   -0.371762
 N   -3.848946    0.921297    0.327439
 C   -2.594374    0.935671   -0.177335
 C   -1.769045    2.134526   -0.191378
 C   -0.167143    4.408849   -0.135491
 C   -1.142893    4.221655    0.830136
 N   -1.041969   -0.812124   -1.143692
 O    0.143607   -0.449600    0.752178
 C    1.351992   -1.102853   -1.233715
 N    2.514615   -1.218233   -0.382726
 C    3.273321   -0.075573   -0.088157
 C    4.847356    2.211221    0.256030
 C    5.415067    0.956322    0.370412
 S    5.361895   -1.775955    0.426175
 C    3.875190   -2.533247    1.138569
 O    2.105356   -3.429187   -0.198554
 H   -7.020053    0.648551    0.375738
 H   -7.352663   -0.535972    1.648961
 H   -6.101898    0.713411    1.868175
 H   -6.678454   -2.655879    0.607180
 H   -4.902925   -4.055201   -0.385517
 H   -2.714392   -3.030124   -1.001546
 H   -0.680451    1.621914   -1.970649
 H    0.744868    3.619820   -1.905361
 H   -2.705956    2.933790    1.545718
 H    1.651906    1.311424   -0.325785
 H    3.023009    3.296986   -0.043352
 H    0.460217    5.288026   -0.110470
 H   -1.277116    4.957373    1.609470
 H   -1.018452   -1.161487   -2.091550
 H    1.523395   -0.334467   -1.992115
 H    1.210644   -2.075613   -1.716861
 H    5.458564    3.091890    0.377434
 H    6.465595    0.837916    0.585080
 H    4.097576   -3.574042    1.364223
 H    3.617282   -1.993952    2.052580
