51 
6nsp_ligand_ani.xyz
 C    6.278123   15.012929   26.697713
 C    6.968736   13.707301   26.462639
 C    6.519206   12.508751   26.945385
 C    7.223305   11.289863   26.695905
 C    8.362117   11.300361   25.959806
 C    8.172407   13.704447   25.688634
 C   11.219981   14.578532   22.400338
 C   12.014608   15.402182   21.614337
 C   11.127395   16.290063   24.091275
 C    9.949164   12.810378   24.707941
 C   12.245967   12.097590   24.408002
 C   14.732981   12.904135   22.374482
 C   15.500892   13.620447   21.466703
 C   16.688185   11.651145   23.042191
 C   14.940544   10.581438   25.217498
 N    8.820591   12.495978   25.444113
 N    8.812898   14.713546   25.135489
 C    9.889587   14.180991   24.493135
 C   10.766165   15.014602   23.651140
 C   12.380195   16.667583   22.065639
 C   11.936269   17.105642   23.309940
 N   10.886442   11.852265   24.339113
 O   12.686987   13.095785   24.932310
 C   13.086788   10.997773   23.758721
 N   14.506459   11.124949   24.021352
 C   15.313173   11.896669   23.153847
 C   16.858657   13.347502   21.324937
 C   17.444904   12.366437   22.115342
 S   17.451581   10.428838   24.067460
 C   16.420117   10.705920   25.524241
 O   14.171845   10.041039   25.989270
 H    5.999959   15.482224   25.747953
 H    5.374753   14.878095   27.299876
 H    6.941255   15.716133   27.212964
 H    5.606409   12.481415   27.537033
 H    6.852000   10.352028   27.097355
 H    8.953576   10.413576   25.753683
 H   10.930800   13.596501   22.034320
 H   12.351976   15.052817   20.641421
 H   10.766129   16.635682   25.056833
 H   13.679041   13.131055   22.516292
 H   15.038495   14.391983   20.855549
 H   13.007098   17.309383   21.451741
 H   12.214212   18.092386   23.670230
 H   10.561642   11.003507   23.896762
 H   12.925346   11.004398   22.675842
 H   12.755249   10.027715   24.134619
 H   17.462037   13.899694   20.610080
 H   18.507292   12.155073   22.023049
 H   16.669150    9.949027   26.268704
 H   16.631309   11.693227   25.951793
