53 
6nsq_ligand_ani.xyz
 C   -3.977980  -27.092004    5.189415
 C   -3.209863  -28.719620    7.264568
 N   -2.814738  -29.608666    8.243287
 C   -0.686536  -28.727403    9.131588
 C   -9.197689  -22.070502    1.548487
 C   -8.472764  -23.444382    3.229479
 C   -1.543294  -29.787641    8.825228
 C   -6.601368  -25.287503   -1.951851
 C   -7.966098  -25.143520   -1.298523
 C   -7.483225  -25.682191    2.157654
 C   -7.054977  -26.501736    3.240136
 C   -6.677601  -27.155393    4.187235
 C   -6.311138  -27.960574    5.294493
 C   -4.961811  -27.928181    5.767151
 C   -2.713739  -27.108041    5.716079
 C    0.527017  -28.973246    9.763196
 C    0.896086  -30.272009   10.088729
 C    0.052705  -31.336348    9.796307
 C   -1.164279  -31.087601    9.177372
 C   -4.599805  -28.751788    6.855710
 C   -5.593324  -29.536592    7.487500
 C   -6.887138  -29.541581    7.018790
 C   -7.265023  -28.765902    5.910317
 C   -8.680432  -28.784536    5.391274
 C   -8.080404  -24.384956    2.243549
 C   -8.321993  -24.004926    0.923215
 N   -7.877271  -25.033388    0.150319
 N   -7.373054  -26.047888    0.888671
 N   -2.328774  -27.895266    6.748362
 N   -8.885158  -22.850179    0.525067
 N   -9.031231  -22.285934    2.863340
 N   -8.291722  -23.703572    4.537608
Cl    2.422492  -30.565424   10.871163
 H   -4.228027  -26.449785    4.352970
 H   -3.425218  -30.403735    8.345309
 H   -0.967094  -27.713090    8.872302
 H   -9.656660  -21.116912    1.293560
 H   -6.722760  -25.374874   -3.035685
 H   -5.968083  -24.421248   -1.742372
 H   -6.099980  -26.186819   -1.581753
 H   -8.477424  -24.241251   -1.639446
 H   -8.596499  -26.006711   -1.534526
 H   -1.936296  -26.463521    5.312562
 H    1.192658  -28.148200    9.998506
 H    0.342153  -32.349928   10.056531
 H   -1.826365  -31.922227    8.956766
 H   -5.358844  -30.125262    8.370771
 H   -7.633735  -30.164479    7.510245
 H   -8.702894  -29.012861    4.322029
 H   -9.282860  -29.528359    5.918988
 H   -9.152840  -27.805885    5.521049
 H   -8.566939  -23.017102    5.221226
 H   -7.864163  -24.571259    4.820052
