55 
6nss_ligand_ani.xyz
 C   -9.841769   17.567310  -11.958647
 C  -10.640851   16.330000  -12.219350
 C  -12.627124   15.157870  -12.246978
 C  -12.065721   14.020564  -12.715503
 C   -9.957901   15.166428  -12.713813
 C   -7.263018   12.354413  -15.078972
 C   -6.054699   11.875873  -15.567783
 C   -6.097966   13.538789  -13.335545
 C   -9.808167   13.070062  -13.396364
 C   -9.478379   10.662240  -13.248033
 C   -7.913096    8.779753  -15.673210
 C   -7.068117    8.374891  -16.697381
 C   -7.756411    6.583063  -14.704663
 O   -8.063613    5.658389  -13.736461
 C   -8.658916    5.261980  -11.488168
 C   -9.214031    5.685678  -10.287909
 C   -9.735925    6.973912  -10.182975
 C   -9.717787    7.830313  -11.276833
 C   -9.183148    7.405340  -12.498449
 N  -11.928192   16.322013  -11.997135
 N  -10.702001   14.029144  -12.973363
 N   -8.681211   14.982828  -12.973980
 C   -8.573820   13.706379  -13.433678
 C   -7.299291   13.183595  -13.953123
 C   -4.863342   12.224251  -14.938516
 C   -4.889877   13.055759  -13.821799
 N  -10.200624   11.764162  -13.671285
 O   -8.518965   10.764191  -12.518100
 C  -10.048188    9.335074  -13.767119
 N   -9.174353    8.203508  -13.644089
 C   -8.287998    7.876056  -14.670597
 C   -6.577500    7.070715  -16.737055
 C   -6.921931    6.175772  -15.733075
 C   -8.631607    6.121858  -12.575528
 H  -10.494316   18.360083  -11.586566
 H   -9.051147   17.369491  -11.226440
 H   -9.340672   17.903800  -12.872922
 H  -13.692558   15.198881  -12.039368
 H  -12.609350   13.098622  -12.894136
 H   -8.192861   12.094293  -15.579144
 H   -6.046287   11.227326  -16.440361
 H   -6.119721   14.197478  -12.470648
 H   -8.266920    9.808606  -15.641458
 H   -6.801060    9.076670  -17.484305
 H   -8.237233    4.267830  -11.601935
 H   -9.233214    5.013377   -9.434847
 H  -10.166328    7.314355   -9.245190
 H  -10.094631    8.843561  -11.172155
 H   -3.915000   11.852062  -15.316211
 H   -3.962179   13.334408  -13.328433
 H  -11.011774   11.624224  -14.257029
 H  -10.337671    9.454950  -14.816583
 H  -10.982204    9.124078  -13.230671
 H   -5.922539    6.754639  -17.543285
 H   -6.551795    5.155094  -15.727831
