55 
6nss_ligand_xtb.xyz
 C   -6.804564   -0.447159    0.918312
 C   -5.691489   -1.081793    0.160944
 C   -4.870156   -2.827490   -1.076205
 C   -3.636982   -2.270467   -1.221991
 C   -4.446845   -0.421443    0.061792
 C   -2.278563    2.791993    1.612729
 C   -1.563328    3.927834    1.938295
 C   -1.041248    2.606286   -0.438443
 C   -2.365056   -0.200068   -0.629589
 C    0.055698   -0.440991   -0.545368
 C    2.653869    1.630509   -1.215133
 C    3.420564    2.786735   -1.255778
 C    4.513608    0.448017   -0.277771
 O    5.109573   -0.683970    0.222594
 C    4.791647   -2.719882    1.361307
 C    4.001038   -3.800707    1.725357
 C    2.688582   -3.854976    1.305816
 C    2.162013   -2.848364    0.508029
 C    2.948993   -1.778331    0.105575
 N   -5.882214   -2.246892   -0.402400
 N   -3.425629   -1.051267   -0.655060
 N   -4.043939    0.743583    0.526503
 C   -2.769595    0.910202    0.111440
 C   -2.012927    2.111676    0.427118
 C   -0.581578    4.401242    1.083258
 C   -0.328881    3.742939   -0.108567
 N   -1.139458   -0.536150   -1.207346
 O    0.168191   -0.040077    0.582682
 C    1.237416   -0.891421   -1.417989
 N    2.499274   -0.771888   -0.751138
 C    3.192665    0.440241   -0.748031
 C    4.727928    2.776116   -0.817458
 C    5.270195    1.603199   -0.312029
 C    4.274311   -1.720867    0.559992
 H   -6.527634   -0.358879    1.967078
 H   -6.980336    0.558017    0.542036
 H   -7.701955   -1.050312    0.823464
 H   -5.095124   -3.791705   -1.506700
 H   -2.821838   -2.741204   -1.749393
 H   -3.045210    2.408845    2.267583
 H   -1.768152    4.445727    2.863912
 H   -0.861499    2.111374   -1.382555
 H    1.626235    1.676003   -1.535447
 H    2.982347    3.697056   -1.635792
 H    5.817773   -2.640366    1.682906
 H    4.413755   -4.583738    2.341737
 H    2.056736   -4.680226    1.597080
 H    1.124088   -2.902796    0.220893
 H   -0.016621    5.284880    1.341452
 H    0.426965    4.119347   -0.782089
 H   -1.163254   -0.971048   -2.119391
 H    1.263649   -0.286598   -2.330556
 H    1.095521   -1.937359   -1.712423
 H    5.327501    3.672025   -0.854486
 H    6.284804    1.563449    0.050900
