54 
6nvg_ligand_xtb.xyz
 C    6.122628   -1.117967   -0.185151
 C    4.740161   -1.045098    0.016236
 C    4.139259    0.099625    0.527519
 C    4.945649    1.189050    0.831260
 C    6.331853    1.143729    0.641478
 C    6.907456   -0.014901    0.132463
 O    6.594822   -2.282569   -0.684239
 O    7.017058    2.261792    0.974635
 C    7.978042   -2.421440   -0.905929
 C    8.412482    2.289659    0.790751
Cl    3.791356   -2.421947   -0.390452
Cl    4.278365    2.648263    1.457808
 C    2.645026    0.146181    0.689752
 O    2.092180    0.320029   -0.604763
 C    0.745722    0.252399   -0.732219
 C   -0.181618    0.076005    0.292601
 N   -1.481894    0.017384    0.058747
 C   -1.878278    0.125664   -1.202345
 N   -1.081999    0.319543   -2.256297
 C    0.209510    0.381087   -2.019820
 N   -3.226822    0.121803   -1.454588
 C   -4.118985   -0.513424   -0.552250
 C   -5.133088    0.254069    0.044862
 C   -6.040899   -0.344368    0.911788
 C   -5.914807   -1.693588    1.194804
 C   -4.906937   -2.466176    0.639378
 C   -4.017554   -1.863220   -0.235098
 N   -5.153361    1.603729   -0.269788
 C   -6.054994    2.565616    0.097004
 C   -5.683862    3.934213   -0.446111
 C   -5.887557    3.998234   -1.959968
 O   -7.043672    2.355396    0.757590
Cl   -2.768818   -2.805952   -0.958026
Cl   -7.036221   -2.433597    2.269290
 H    7.971926   -0.057190   -0.020539
 H    8.341765   -1.697985   -1.642182
 H    8.546125   -2.318973    0.023823
 H    8.108925   -3.428680   -1.297425
 H    8.913380    1.529447    1.398015
 H    8.681296    2.157196   -0.261807
 H    8.728397    3.277787    1.120417
 H    2.357901    0.979575    1.341249
 H    2.295414   -0.798466    1.126647
 H    0.099548   -0.019306    1.332175
 H    0.857796    0.533921   -2.871025
 H   -3.442339    0.040457   -2.440862
 H   -6.824169    0.246820    1.356316
 H   -4.818170   -3.513750    0.874585
 H   -4.354709    1.884868   -0.827420
 H   -4.644079    4.155502   -0.196768
 H   -6.324579    4.669736    0.040758
 H   -5.242875    3.291473   -2.478109
 H   -6.920657    3.768683   -2.209150
 H   -5.660319    4.997365   -2.323601
