57 
6nvh_ligand_ani.xyz
 C    3.582382  -21.580760    9.073953
 C    4.420764  -20.460754    8.969674
 C    4.930148  -20.045382    7.739399
 C    4.626439  -20.808013    6.611691
 C    3.790139  -21.931566    6.691745
 C    3.264886  -22.310677    7.927755
 O    3.129069  -21.885499   10.308945
 O    3.545298  -22.588224    5.537440
 C    2.278188  -23.002416   10.461477
 C    2.704118  -23.722332    5.568819
Cl    4.818915  -19.607127   10.426747
Cl    5.287004  -20.397399    5.060777
 C    5.838885  -18.844199    7.641739
 O    7.171333  -19.323268    7.828202
 C    8.189545  -18.426490    7.785931
 C    9.491731  -18.903481    7.968954
 N   10.553825  -18.110005    7.949274
 C   10.316446  -16.801540    7.741968
 N    9.126123  -16.238961    7.542866
 C    8.071879  -17.058293    7.573705
 N   11.432260  -15.989058    7.760996
 C   11.384768  -14.654661    7.240498
 C   11.251239  -13.591705    8.147035
 C   11.225198  -12.279075    7.683191
 C   11.313274  -12.045131    6.316930
 C   11.412529  -13.099551    5.415922
 C   11.431123  -14.423507    5.860711
 C   11.482710  -15.554588    4.865866
 N   11.167335  -13.908654    9.520963
 C   10.939714  -13.070115   10.572843
 C   10.878620  -13.722091   11.946638
 C   10.842126  -15.242372   12.009557
 O   10.799978  -11.860403   10.478325
 H    2.615655  -23.173598    7.998215
 H    2.044004  -23.050219   11.525506
 H    1.348199  -22.882267    9.890999
 H    2.775244  -23.932771   10.157922
 H    2.652218  -24.078209    4.539284
 H    3.118600  -24.514649    6.205383
 H    1.694403  -23.466522    5.914936
 H    5.740751  -18.371899    6.659366
 H    5.587776  -18.113238    8.416584
 H    9.662179  -19.965047    8.136302
 H    7.102234  -16.585942    7.417510
 H   12.282310  -16.519330    7.613207
 H   11.134299  -11.470783    8.396929
 H   11.296250  -11.020451    5.953222
 H   11.473175  -12.899973    4.347919
 H   12.270920  -16.277481    5.100815
 H   10.530396  -16.096758    4.837316
 H   11.674802  -15.167121    3.861846
 H   11.271567  -14.894113    9.706509
 H   11.739219  -13.332456   12.503976
 H    9.994869  -13.293454   12.430143
 H   10.733675  -15.567107   13.048538
 H    9.995815  -15.649341   11.445358
 H   11.765450  -15.688974   11.624680
