54 
6nvi_ligand_ani.xyz
 C    3.351452  -21.205491    6.469401
 C    4.246510  -20.125515    6.496018
 C    4.771330  -19.645119    7.695718
 C    4.423726  -20.303800    8.875074
 C    3.530480  -21.385561    8.872901
 C    2.991488  -21.829358    7.664631
 O    2.888222  -21.578849    5.257139
 O    3.246905  -21.939717   10.071261
 C    1.981369  -22.659011    5.181942
 C    2.347880  -23.027968   10.118343
 C    5.740662  -18.488358    7.710539
 O    7.047647  -19.047322    7.573514
 C    8.107952  -18.201437    7.550326
 C    8.059662  -16.818128    7.656438
 N    9.159093  -16.055495    7.627960
 C   10.317160  -16.686563    7.470644
 N   10.484038  -18.017644    7.373076
 C    9.384826  -18.755773    7.409323
Cl    4.695115  -19.406222    4.982220
Cl    5.098423  -19.811909   10.395960
 N   11.491639  -15.948823    7.446277
 C   11.569359  -14.659324    6.850404
 C   11.086727  -13.523728    7.535720
 C   11.161875  -12.258398    6.966246
 C   11.733253  -12.136214    5.712950
 C   12.242435  -13.213745    5.010280
 C   12.162520  -14.468600    5.602129
Cl   12.823252  -15.822181    4.731782
 F   11.802437  -10.917548    5.157229
 N   10.565102  -13.716740    8.824296
 C    9.882985  -12.827703    9.601611
 C    9.280747  -13.394939   10.878853
 O    9.739307  -11.640954    9.349280
 C    9.392632  -14.894932   11.104239
 H    2.298528  -22.660494    7.653996
 H    1.749820  -22.775023    4.122597
 H    2.428244  -23.588022    5.558791
 H    1.056288  -22.448578    5.733939
 H    2.273151  -23.301990   11.171251
 H    1.354343  -22.747175    9.745784
 H    2.723170  -23.886415    9.546498
 H    5.532669  -17.805663    6.880740
 H    5.662457  -17.938605    8.653655
 H    7.116008  -16.289307    7.778505
 H    9.501116  -19.834509    7.325088
 H   12.266531  -16.558397    7.214998
 H   10.779757  -11.395089    7.494710
 H   12.693073  -13.074611    4.034045
 H   10.558149  -14.680827    9.114092
 H    9.747091  -12.839472   11.701250
 H    8.230851  -13.081886   10.869839
 H    8.878692  -15.173618   12.028453
 H    8.934185  -15.454234   10.282719
 H   10.435670  -15.215015   11.200325
