53 
6nzp_ligand_ani.xyz
 C    9.977642   -3.246823   30.897284
 C   17.251591   -7.499733   22.591327
 C   17.227320   -5.139840   23.497631
 C   15.477572   -2.209731   26.180824
 C   16.227423   -5.567247   25.288801
 C    7.500202   -3.648247   30.449480
 C    7.929831   -4.660488   31.450830
 C   15.578054   -5.430114   26.605338
 C   15.593795   -4.239063   27.337464
 C   14.631246   -1.220966   30.933399
 N   13.853286   -0.671969   31.854739
 N   12.606346   -1.057170   32.030634
 C   12.126478   -2.015882   31.238714
 C   12.865420   -2.670991   30.258559
 C   14.191454   -2.305630   30.126211
 N   10.789047   -2.314435   31.497894
 N   15.051770   -2.906209   29.230470
 C   16.009671   -0.616283   30.801521
 N   16.301910    0.311604   31.730795
 O   16.795639   -0.953141   29.913956
 C   17.559835    1.022366   31.753485
 C   14.935681   -4.137991   28.577493
 C   14.296694   -5.255501   29.102832
 C   14.292934   -6.451419   28.386264
 C   14.920480   -6.540923   27.152999
 O   16.274906   -3.125612   26.928822
 C    8.584833   -3.300643   31.439870
 O   10.330951   -3.987014   29.993258
 N   16.309168   -6.742883   24.685501
 N   16.955972   -6.450648   23.541862
 N   16.777893   -4.542155   24.580964
 H   17.892778   -8.250737   23.058989
 H   16.321718   -7.970233   22.263310
 H   17.764531   -7.063366   21.732108
 H   17.745429   -4.682070   22.665819
 H   16.127542   -1.360935   25.955385
 H   15.133868   -2.666803   25.247520
 H   14.619433   -1.867717   26.775167
 H    7.831281   -3.796382   29.425886
 H    6.534860   -3.166017   30.569815
 H    7.268458   -4.894446   32.279538
 H    8.545614   -5.479269   31.090671
 H   12.387722   -3.417212   29.633337
 H   10.402804   -1.751622   32.243279
 H   15.893727   -2.370995   29.022476
 H   15.564912    0.534253   32.385883
 H   17.987893    1.001899   32.760454
 H   18.240979    0.525790   31.060481
 H   17.434814    2.065379   31.440275
 H   13.807668   -5.194901   30.070585
 H   13.787379   -7.317450   28.802769
 H   14.917417   -7.470795   26.591511
 H    8.344127   -2.608588   32.242518
