46 
6nzr_ligand_ani.xyz
 C    9.667460   -3.025678   31.342008
 C   14.810498   -1.850391   26.251208
 C    9.522945   -5.111635   30.419140
 C    8.217989   -5.297371   30.833986
 C    7.616396   -4.259216   31.548280
 C   14.862601   -5.464810   27.147749
 C   15.030333   -4.216510   27.735607
 C   14.293097   -0.971248   31.282547
 N   13.496571   -0.376834   32.157724
 N   12.218729   -0.682452   32.258796
 C   11.723125   -1.598395   31.427083
 C   12.459982   -2.209317   30.418571
 C   13.819595   -1.975883   30.398108
 N   10.375519   -1.864685   31.620988
 N   14.665362   -2.650056   29.543930
 C   15.727906   -0.507233   31.282898
 N   16.018098    0.440474   32.191162
 O   16.572227   -0.958679   30.511902
 C   17.356553    0.976249   32.296959
 C   14.424144   -3.892953   28.959580
 C   13.627310   -4.872130   29.567866
 C   13.463133   -6.122168   28.978745
 C   14.076037   -6.425579   27.767411
 C    8.340778   -3.113307   31.809541
 N   10.247158   -4.006515   30.649670
 S   16.015012   -3.005454   26.878330
 O   16.828927   -2.293853   27.866521
 O   16.654540   -3.656977   25.741622
 H   14.223398   -1.462123   27.087837
 H   15.366472   -1.041211   25.772159
 H   14.171186   -2.356046   25.525341
 H   10.026739   -5.894720   29.854944
 H    7.688398   -6.216069   30.608423
 H    6.591108   -4.347315   31.899118
 H   15.362378   -5.662850   26.203820
 H   11.958191   -2.838147   29.695427
 H    9.971511   -1.251459   32.316760
 H   15.594778   -2.239335   29.407352
 H   15.264057    0.761293   32.781213
 H   17.372744    1.724639   33.091788
 H   18.073489    0.182780   32.530460
 H   17.664434    1.440242   31.354501
 H   13.127769   -4.654905   30.506853
 H   12.833359   -6.858849   29.472834
 H   13.943542   -7.400169   27.309129
 H    7.905425   -2.282152   32.359109
