44 
6o0h_ligand_ani.xyz
 C  127.872096  151.896405  183.373433
 C  127.664582  159.426323  182.432985
 C  126.971910  160.170363  181.485217
 C  127.410712  160.204864  180.164751
 C  128.544187  159.481199  179.800759
 C  129.237933  158.737573  180.748656
 C  128.830898  157.266012  184.123455
 C  127.093396  154.546766  183.235752
 C  127.337347  153.839023  182.070798
 C  127.232379  154.507136  180.750759
 C  126.867289  156.543525  179.661391
 C  127.660676  152.602100  184.576494
 C  127.723076  152.502860  182.138894
 C  127.309173  153.962677  184.477144
 C  129.453964  156.443514  185.052880
 C  130.849449  156.402109  185.040833
 C  131.604039  157.084959  184.112519
 C  130.932663  157.833475  183.156101
 C  129.545140  157.936546  183.123603
 C  128.817540  158.714845  182.083463
 F  131.461959  155.647710  185.973441
 F  131.678121  158.494110  182.248412
 N  128.790341  155.659850  186.020068
 O  127.811025  151.933676  185.717694
 O  126.333062  156.123282  185.586545
 O  127.080078  154.204906  187.068511
 O  127.403289  153.965967  179.681944
 O  126.930696  155.808893  180.880862
 S  127.244787  155.037286  185.877802
Cl  128.332106  150.229477  183.464768
 H  127.318438  159.407662  183.465076
 H  126.080603  160.719984  181.776287
 H  126.871364  160.789002  179.423862
 H  128.887046  159.494419  178.768865
 H  130.107551  158.161860  180.447703
 H  127.752296  157.353437  184.149583
 H  126.748300  155.568500  183.167342
 H  126.562171  157.550686  179.936000
 H  127.852049  156.568260  179.185555
 H  126.149427  156.091120  178.973668
 H  127.904553  151.942419  181.227468
 H  132.686535  157.027046  184.116646
 H  129.401872  155.089347  186.591555
 H  127.544883  152.497825  186.469455
