56 
6o1g_ligand_ani.xyz
 C  -11.824723    2.027985   12.869697
 C  -11.853355    0.694868   12.156871
 C  -10.716744   -1.011138   10.900250
 N   -9.570790   -1.541727   10.341716
 C  -12.940657   -1.304129   11.372281
 C  -13.012737   -0.092215   12.069664
 C  -14.298230    0.365300   12.722707
 C  -14.722362    1.478011   14.881672
 C  -14.670338    1.344385   16.353892
 C  -15.100744    2.347706   17.253556
 C  -14.037558    0.068741   19.680642
 C  -12.666391    0.475739   20.174982
 C  -11.544731   -0.314387   19.929002
 C  -10.126988    1.282860   21.055033
 C   -8.761291    1.705629   21.546137
 C   -7.103492   -0.760437   23.615062
 C   -8.132019   -0.200762   24.406470
 C  -11.247357    2.071931   21.303426
 C  -14.235770    0.319662   17.181752
 C  -10.693967    0.224941   11.558446
 N  -11.817980   -1.761124   10.809024
 C  -14.147042   -2.194416   11.211569
 N  -14.199573    0.438049   14.170400
 O  -15.188552    2.476922   14.346092
 N  -14.940341    1.981669   18.513224
 N  -14.427352    0.741576   18.451153
 C  -10.287988    0.082739   20.366580
 N   -8.218170    0.800035   22.547442
 C   -7.197462   -0.083541   22.421250
 N   -8.801206    0.738363   23.751540
 C  -12.505694    1.674807   20.867366
 H  -12.714826    2.630094   12.660401
 H  -11.770524    1.896719   13.955164
 H  -10.949014    2.602289   12.558251
 H   -9.754139   -2.297416    9.696813
 H   -8.876546   -0.881538   10.023625
 H  -14.562127    1.374165   12.397248
 H  -15.140750   -0.278382   12.438602
 H  -15.513718    3.317197   17.007499
 H  -14.801035    0.330650   20.419609
 H  -14.087066   -1.010458   19.502807
 H  -11.654215   -1.255201   19.392334
 H   -8.041203    1.744589   20.722455
 H   -8.817215    2.698985   22.000820
 H   -6.398558   -1.538984   23.876086
 H   -8.419468   -0.439812   25.425367
 H  -11.135172    3.006592   21.850852
 H  -13.837520   -0.671242   16.994479
 H   -9.776625    0.807685   11.604173
 H  -13.851006   -3.082741   10.649734
 H  -14.546128   -2.506600   12.183396
 H  -14.951106   -1.685017   10.667869
 H  -13.865170   -0.374551   14.664418
 H   -9.424727   -0.550105   20.173448
 H   -6.625095   -0.153902   21.504630
 H  -13.373441    2.304944   21.055021
