25 
6o4x_ligand_ani.xyz
 C  100.039066   47.355109   -6.805382
 C  100.249233   46.153114   -6.180060
 C  100.698499   45.030652   -6.917058
 C  100.927924   45.131684   -8.260074
 C  101.048134   47.530208  -12.329669
 C  100.880766   48.661400  -13.077260
 C  100.435759   49.861560  -12.471827
 C  100.167412   49.902897  -11.127863
 C  100.071505   48.712093   -8.918529
 N  100.970285   46.377175  -10.268162
 C  100.781129   47.526789  -10.928488
 C  100.330420   48.742334  -10.315652
 C  100.267879   47.498529   -8.205451
 C  100.722694   46.361924   -8.952137
 N   99.641620   49.829144   -8.272738
 H   99.693848   48.201673   -6.216506
 H  100.071097   46.056725   -5.112329
 H  100.860420   44.084687   -6.406288
 H  101.272367   44.291748   -8.855046
 H  101.387557   46.593935  -12.761316
 H  101.089206   48.645195  -14.144147
 H  100.307520   50.753043  -13.080005
 H   99.826989   50.837136  -10.687512
 H   99.497834   50.694795   -8.761668
 H   99.455336   49.825151   -7.285632
