25 
6o4x_ligand_xtb.xyz
 C   -2.494962    1.131667    0.000317
 C   -3.633409    0.380035    0.001360
 C   -3.560258   -1.025093    0.001517
 C   -2.350476   -1.648609   -0.000103
 C    2.350674   -1.648244   -0.000564
 C    3.560525   -1.024830    0.000581
 C    3.633626    0.380275    0.001764
 C    2.495079    1.131782    0.001324
 C   -0.000049    1.251642   -0.000795
 N    0.000119   -1.578133   -0.001687
 C    1.144557   -0.902149   -0.000878
 C    1.216478    0.526748   -0.000150
 C   -1.216435    0.526544   -0.000574
 C   -1.144434   -0.902357   -0.001010
 N   -0.000683    2.607231   -0.001853
 H   -2.586314    2.209591    0.000615
 H   -4.600544    0.861188    0.001982
 H   -4.474548   -1.600561    0.003135
 H   -2.263264   -2.723787   -0.000447
 H    2.263454   -2.723371   -0.000974
 H    4.474863   -1.600235    0.000652
 H    4.600854    0.861289    0.003171
 H    2.586226    2.209699    0.002292
 H    0.859880    3.119760   -0.000559
 H   -0.862156    3.118291   -0.001819
