53 
6o95_ligand_xtb.xyz
 C    3.717473   10.219716   29.570793
 C    2.725387   10.169868   30.523011
 C    2.326777    8.927570   31.010364
 C    2.906010    7.745166   30.511988
 C    3.924672    7.809617   29.565886
 C    4.321285    9.053047   29.111040
 C    1.124549    6.108183   30.520156
 C    0.568911    5.015256   31.434065
 C    4.359681   11.380576   28.875559
 C    6.815065   11.132258   28.195846
 C    5.379877   10.687106   27.935418
 O    5.291866    9.273864   28.193214
 N    2.421920    6.524423   31.035155
 O    1.453723    3.921491   31.530647
 C    2.722439    4.338745   31.980852
 C    3.326105    5.391727   31.048451
 N    1.390281    8.795089   32.040669
 C    0.494223    9.716895   32.480618
 O    0.305608   10.810205   31.979243
 C   -0.266847    9.259974   33.657854
 C   -1.286739    9.975457   34.302062
 N   -1.775136    9.334537   35.352979
 N   -1.098308    8.201533   35.430358
 C   -0.145929    8.087105   34.407131
 N    0.641302    7.018477   34.306575
 C    0.508194    6.075752   35.201795
 C   -0.428286    6.133057   36.254899
 C   -1.239184    7.228550   36.347256
 C    4.998579   10.923342   26.462620
 O    5.986068   10.385481   25.618184
 H    2.260757   11.066322   30.896911
 H    4.393238    6.920079   29.179769
 H    1.220891    5.709426   29.496181
 H    0.443419    6.959328   30.499655
 H    0.393045    5.441371   32.432645
 H   -0.365736    4.615596   31.036732
 H    4.862237   12.044152   29.581388
 H    3.631778   11.970869   28.316169
 H    7.088300   10.906830   29.223740
 H    7.478526   10.596479   27.523698
 H    6.911559   12.199954   28.018934
 H    2.638821    4.766263   32.991385
 H    3.343990    3.442279   32.011692
 H    3.453224    4.944273   30.049223
 H    4.297443    5.712848   31.427039
 H    1.427312    7.898614   32.517246
 H   -1.671343   10.936140   34.023915
 H    1.162581    5.221976   35.094487
 H   -0.502458    5.329520   36.967021
 H   -1.991101    7.376797   37.107383
 H    4.899210   12.007186   26.295399
 H    4.023957   10.448549   26.283088
 H    5.655785   10.379086   24.714612
