53 
6o95_ligand_ani.xyz
 C    2.955227   -1.063206   -0.260667
 C    1.638701   -1.485643   -0.198280
 C    0.631613   -0.521022   -0.146387
 C    0.960349    0.854061   -0.152743
 C    2.287814    1.274679   -0.216187
 C    3.265767    0.289952   -0.268087
 C   -0.350966    2.551410   -1.322875
 C   -1.742977    3.162558   -1.224013
 C    4.237940   -1.844150   -0.364470
 C    6.445458   -0.795212   -1.173683
 C    5.309846   -0.743087   -0.168147
 O    4.606677    0.524486   -0.359563
 N   -0.121937    1.784466   -0.105648
 O   -1.865489    3.963705   -0.062595
 C   -1.594609    3.227448    1.116276
 C   -0.192154    2.634610    1.074421
 N   -0.736852   -0.848565   -0.085182
 C   -1.315877   -2.090879   -0.052466
 O   -0.700440   -3.151429   -0.085693
 C   -2.785573   -2.071462    0.027618
 C   -3.623552   -3.203316    0.070177
 N   -4.910279   -2.904729    0.139779
 N   -4.937927   -1.546303    0.144253
 C   -3.678537   -0.982201    0.078431
 N   -3.502412    0.356287    0.070037
 C   -4.588723    1.098963    0.131776
 C   -5.903471    0.572169    0.201162
 C   -6.063664   -0.782730    0.205880
 C    5.828722   -0.726206    1.275408
 O    6.649573    0.388869    1.524110
 H    1.355745   -2.531247   -0.191543
 H    2.544694    2.329114   -0.226583
 H    0.401014    3.347291   -1.469504
 H   -0.292544    1.866617   -2.174783
 H   -1.949391    3.820225   -2.074764
 H   -2.483870    2.349068   -1.209952
 H    4.335539   -2.323036   -1.347455
 H    4.325884   -2.638848    0.384701
 H    6.936172   -1.775917   -1.140178
 H    6.058501   -0.625600   -2.181815
 H    7.190466   -0.030249   -0.937961
 H   -2.319300    2.407041    1.231973
 H   -1.707797    3.927165    1.950687
 H    0.558163    3.445376    1.063125
 H   -0.011917    2.013343    1.957096
 H   -1.366271   -0.048139   -0.050230
 H   -3.310071   -4.239727    0.051127
 H   -4.433804    2.179766    0.126531
 H   -6.758941    1.232676    0.247833
 H   -7.002390   -1.319880    0.253905
 H    4.972335   -0.758022    1.968629
 H    6.433283   -1.623512    1.451865
 H    6.139771    1.162925    1.245671
