41 
6oa1_ligand_ani.xyz
 C   30.407144    2.881760    0.347045
 C   30.004077    4.322357    0.059427
 C   29.444898    3.794082   -2.129697
 C   25.765630    4.307209    0.054486
 C   25.898666    2.905971    0.346734
 C   24.891175    2.185743    0.926518
 C   26.475781    0.827437    0.656852
 C   28.698816   -0.352492   -0.576962
 C   29.879328    0.565908   -0.218790
 C   29.822017    2.333282   -1.915693
 C   22.665642    1.923409    1.877753
 C   23.443686    4.092368    0.984825
 C   24.285079    6.227228    0.113441
 N   25.248734    0.889751    1.125534
 N   29.628858    1.980588   -0.505115
 N   26.926101    2.010396    0.169872
 N   23.686221    2.744413    1.250021
 N   24.502303    4.808998    0.398388
 O   26.605802    5.051283   -0.437773
 O   30.226133    4.638171   -1.303304
 O   22.377302    4.612822    1.246831
 S   27.450735   -0.638421    0.722283
 H   30.201694    2.639852    1.396325
 H   31.491473    2.765498    0.173505
 H   30.613635    5.018652    0.644513
 H   28.942946    4.477326    0.310070
 H   29.644295    4.098085   -3.162604
 H   28.376002    3.947243   -1.911074
 H   28.190253   -0.005695   -1.480934
 H   29.070484   -1.361676   -0.773442
 H   30.094290    0.460092    0.850246
 H   30.779330    0.221474   -0.761012
 H   29.194841    1.691314   -2.543104
 H   30.871662    2.179295   -2.220213
 H   21.747357    2.506598    1.905955
 H   22.532351    1.008363    1.296199
 H   22.967665    1.648747    2.892885
 H   23.271400    6.477802    0.418151
 H   25.012702    6.827713    0.660715
 H   24.425629    6.412319   -0.951979
 H   27.899863    2.179736   -0.128880
