49 
6oe0_ligand_ani.xyz
 C   -1.084417    5.104793   84.960483
 C   -3.186942    5.078823   83.751864
 C   -1.593555    4.213656   85.891678
 C   -3.692481    4.185845   84.686749
 C   -1.874138    5.540079   83.888105
 C   -2.898110    3.751864   85.742775
 C   -2.475538    9.513263   80.077964
 C   -1.615553    7.813748   78.786128
 C   -1.850388    7.024316   81.876939
 C   -6.475381   10.647707   78.338839
 C   -5.597720   11.838066   77.942341
 C   -5.836844    9.263014   78.171639
 C   -4.201520   11.884396   78.573117
 C   -4.726609    8.986956   79.191209
 C   -3.257838   10.797988   78.047178
 C   -3.313533    9.456606   78.795730
 C   -0.880368    7.965972   81.139100
 N   -2.576784    8.444619   78.035284
 N   -1.493829    8.548357   79.972455
 N   -3.158150    1.106530   86.255130
 N   -1.288521    6.444033   82.981226
 O   -2.644563   10.231433   81.037411
 O   -0.975152    6.825554   78.509358
 O   -2.991194    6.833494   81.499796
 O   -2.789903    2.728925   88.141888
 O   -5.002273    2.700554   86.878692
 S   -3.552218    2.593664   86.910753
 H   -0.065587    5.469540   85.068162
 H   -3.794724    5.421239   82.926011
 H   -0.993289    3.882832   86.733883
 H   -4.715504    3.830271   84.601618
 H   -6.773498   10.757090   79.392348
 H   -7.405145   10.692827   77.756915
 H   -5.476420   11.842593   76.848244
 H   -6.135862   12.763030   78.187519
 H   -6.620929    8.508947   78.303465
 H   -5.460662    9.133861   77.147374
 H   -3.763100   12.861910   78.342195
 H   -4.255190   11.825093   79.667058
 H   -4.984516    9.479606   80.137239
 H   -4.653384    7.915721   79.419977
 H   -3.481776   10.595230   76.992115
 H   -2.215614   11.134371   78.075264
 H   -0.001640    7.406881   80.807145
 H   -0.564988    8.772772   81.807057
 H   -3.022931    7.896059   77.313051
 H   -2.541462    0.600914   86.882412
 H   -4.001423    0.584592   86.040975
 H   -0.330834    6.686366   83.184142
