46 
6oe1_ligand_dft.xyz
 C    3.274738   -1.769946    0.389797
 C    2.299348    0.364931   -0.213959
 C    4.545334   -1.232343    0.288687
 C    3.578082    0.900266   -0.314289
 C    2.144543   -0.977751    0.144144
 C    4.690120    0.108312   -0.058324
 C   -3.369280   -0.597986    0.980127
 C   -3.248862   -1.300033   -1.216758
 C   -0.355979   -1.053081    0.101695
 C   -6.497563    2.293840    0.076698
 C   -5.115932    2.493912   -0.552945
 C   -6.885587    0.812562    0.105188
 C   -4.052875    1.653733    0.158585
 C   -5.827317   -0.029922    0.821635
 C   -4.438795    0.161807    0.196236
 C   -1.487363   -2.066129    0.347460
 N   -4.329342   -0.471934   -1.115610
 N   -2.753867   -1.455084    0.093862
 N    6.726184    1.102668    1.420884
 N    0.890069   -1.597425    0.268669
 O   -3.097447   -0.471945    2.152150
 O   -2.788706   -1.840615   -2.196590
 O   -0.581528    0.101006   -0.199691
 O    7.231068   -0.238503   -0.623398
 O    6.199654    2.073897   -0.881168
 S    6.318424    0.804008   -0.180343
 H    3.156537   -2.817080    0.657130
 H    1.428561    0.972233   -0.414336
 H    5.420366   -1.848445    0.464986
 H    3.712103    1.935953   -0.607218
 H   -7.250703    2.872620   -0.469220
 H   -6.481983    2.681111    1.104810
 H   -4.827435    3.549795   -0.518215
 H   -5.156011    2.225212   -1.618800
 H   -7.010409    0.444463   -0.923125
 H   -7.854101    0.681062    0.599368
 H   -3.946308    1.989739    1.196869
 H   -3.072240    1.755289   -0.318534
 H   -6.090762   -1.092510    0.791768
 H   -5.759094    0.265233    1.875586
 H   -1.463664   -2.402672    1.388512
 H   -1.374635   -2.926845   -0.318241
 H   -4.690310   -0.053271   -1.958299
 H    7.675552    0.782501    1.587774
 H    6.620299    2.087868    1.643306
 H    0.918155   -2.577679    0.512443
