46 
6oe1_ligand_ani.xyz
 C    0.307251    4.205335   84.549980
 C   -1.640032    5.631563   84.312836
 C   -0.435575    3.290069   85.278649
 C   -2.380099    4.711974   85.043363
 C   -0.288557    5.376016   84.062489
 C   -1.782941    3.547533   85.514575
 C    0.193085    9.435448   80.303585
 C    0.864685   10.529146   82.215499
 C    0.183049    7.443826   82.740533
 C   -2.568667   12.601762   79.174447
 C   -2.831418   11.841953   80.478865
 C   -1.072498   12.860529   78.972319
 C   -2.027653   10.542539   80.533662
 C   -0.268319   11.559511   79.026002
 C   -0.522581   10.785593   80.325740
 C    1.368871    8.119116   82.024577
 N    0.114538   11.418960   81.483597
 N    0.988453    9.375559   81.431834
 N   -3.351145    1.358363   85.238481
 N    0.527854    6.258895   83.330056
 O    0.072072    8.554520   79.483604
 O    1.346497   10.679710   83.314591
 O   -0.932724    7.928453   82.764403
 O   -1.837521    1.584847   87.234756
 O   -3.885373    3.081129   86.992825
 S   -2.749291    2.374710   86.422387
 H    1.360130    4.011274   84.359083
 H   -2.093644    6.538729   83.939288
 H    0.021688    2.387243   85.672174
 H   -3.427732    4.904016   85.257494
 H   -3.126105   13.546175   79.162383
 H   -2.945555   12.003718   78.332031
 H   -2.558909   12.474577   81.336292
 H   -3.899620   11.622892   80.586573
 H   -0.706333   13.540661   79.754599
 H   -0.897727   13.365249   78.015502
 H   -2.348305    9.864243   79.732278
 H   -2.174006   10.013572   81.482753
 H   -0.545658   10.899639   78.194239
 H    0.804997   11.759246   78.948277
 H    1.748701    7.462585   81.236236
 H    2.167375    8.320994   82.743155
 H   -0.344852   12.155665   82.000981
 H   -3.013474    0.412965   85.385620
 H   -4.364420    1.406324   85.218945
 H    1.488487    5.967177   83.235440
