47 
6oe3_ligand_ani.xyz
 C  439.884768   -9.854227  229.351218
 N  436.306745  -11.974389  225.603317
 O  437.388804  -10.156119  223.773817
 C  440.531010  -10.459495  228.247934
 N  436.892993  -14.207414  225.870520
 O  438.394205  -14.906997  227.425951
 C  440.297612   -9.996484  226.978829
 O  435.345857  -13.607647  224.309991
 C  439.419861   -8.903087  226.762019
 C  439.122345   -8.426329  225.450944
 C  439.280387   -8.960516  223.152640
 C  440.053839   -8.290739  222.223138
 C  439.621886   -8.180130  220.901108
 C  438.415229   -8.751552  220.522356
 C  437.629047   -9.430623  221.454102
 C  438.057065   -9.536917  222.774541
 C  436.055470  -10.577504  223.564794
 C  435.510305  -10.951171  224.933708
 C  437.215342  -11.648523  226.583675
 C  437.941764  -12.567857  227.240343
 C  437.808144  -13.978943  226.906118
 C  436.123451  -13.289429  225.189239
 C  438.271321   -7.369233  225.236679
 C  437.666626   -6.781345  226.359599
 C  437.883074   -7.205194  227.638919
 C  438.773932   -8.292810  227.862466
 C  439.032800   -8.790462  229.166478
 N  440.311172  -10.781865  231.744264
 C  440.120001  -10.367025  230.679931
 O  439.748488   -9.105047  224.440968
 F  436.829410   -5.751748  226.142324
 H  441.190426  -11.304979  228.421308
 H  436.756580  -15.170441  225.589788
 H  440.772511  -10.460458  226.123035
 H  440.992701   -7.853736  222.548797
 H  440.233023   -7.649383  220.176237
 H  438.069007   -8.672070  219.494872
 H  436.685504   -9.872560  221.145379
 H  435.452784   -9.762811  223.141226
 H  436.019175  -11.437973  222.885503
 H  435.520476  -10.072784  225.583026
 H  434.485983  -11.314887  224.837604
 H  437.303859  -10.582169  226.787549
 H  438.619635  -12.291777  228.035138
 H  438.050434   -6.988473  224.245555
 H  437.381097   -6.714993  228.465472
 H  438.546849   -8.328685  230.019582
