50 
6ohd_ligand_xtb.xyz
 C   -1.521102    0.360567    0.298190
 C    1.326083   -0.242324    1.099765
 C    1.781721    1.263040   -0.719559
 C   -7.701079   -2.252933   -0.425068
 C   -0.483020    1.283553    0.339182
 C   -2.851292    0.757236    0.356878
 C    3.433121   -0.112479   -0.068714
 C    4.653368   -1.671284    0.989549
 C    0.287854    3.689032    0.585603
 C    5.274721   -0.642435   -2.368029
 C    5.758029   -0.374762   -0.939722
 C   -3.143849    2.111214    0.498098
 C   -0.779956    2.643506    0.484484
 C    2.617930   -0.683837    0.935461
 C   -6.200854   -0.678576   -0.403420
 C   -3.889205   -0.306423    0.306791
 C    6.074188    1.112206   -0.753420
 C    7.006219   -1.204467   -0.655375
 C   -2.113957    3.028241    0.569478
 C   -6.424941   -2.028364   -0.013883
 C    0.897993    0.779024    0.242141
 N    3.027978    0.837397   -0.887247
 N   -7.266997   -0.178933   -0.987895
 N    3.390112   -1.625228    1.559927
 N    4.663768   -0.721978   -0.020829
 N   -5.080224    0.100321   -0.241982
 O    5.532528   -2.414641    1.349538
 O   -3.694843   -1.435316    0.701730
 O   -8.202608   -1.157661   -1.002567
 H   -1.303292   -0.692573    0.198071
 H    0.669855   -0.645342    1.855996
 H    1.468302    2.025394   -1.417936
 H   -8.341922   -3.110043   -0.369779
 H    1.223018    3.266559    0.943542
 H    0.470237    4.138142   -0.390658
 H   -0.025737    4.482453    1.260779
 H    4.398558   -0.038678   -2.586307
 H    6.060266   -0.391545   -3.075045
 H    5.021019   -1.693362   -2.488913
 H   -4.163968    2.453866    0.595471
 H    6.883880    1.401329   -1.417284
 H    5.198773    1.712627   -0.983237
 H    6.379825    1.306684    0.272408
 H    6.806554   -2.265293   -0.771985
 H    7.785608   -0.915489   -1.356252
 H    7.365414   -1.037988    0.355753
 H   -2.346986    4.075113    0.701752
 H   -5.735856   -2.678693    0.477736
 H    3.115788   -2.225930    2.318920
 H   -5.164238    1.034238   -0.617042
