41 
6oio_ligand_ani.xyz
 C    5.395872   10.292888   18.072478
 C    6.554730   11.223375   18.279970
 C    7.550762   13.358081   17.694808
 C    6.530826   12.415104   17.561192
 C    7.633584   10.937196   19.116537
 C    8.662129   11.864375   19.248149
 C    8.615977   13.069492   18.555444
 C    7.508746   14.635920   16.934095
 C    7.428731   17.042958   15.496269
 C    7.110524   15.841656   14.868333
 C    7.142738   14.651091   15.584930
 C    7.785091   17.042082   16.842145
 C    7.831432   15.847204   17.551824
 O    4.599673   10.432830   17.155607
 N    5.259029    9.285460   18.974614
 N    4.237996    8.332910   18.812568
 S    3.634236    7.659789   20.270836
 O    2.918120    6.458927   19.901688
 O    4.787363    7.661426   21.161498
 C    2.475879    8.850205   20.878947
 C    2.924246    9.867362   21.716755
 C    2.017678   10.822457   22.162775
 C    0.680054   10.749252   21.779812
 C    0.242801    9.717601   20.951709
 C    1.139660    8.756936   20.497473
 H    5.684090   12.598999   16.904652
 H    7.701587    9.991085   19.649314
 H    9.501084   11.648519   19.904247
 H    9.426899   13.786077   18.660383
 H    7.398399   17.975680   14.939422
 H    6.828152   15.831199   13.818876
 H    6.896919   13.711451   15.094276
 H    8.035978   17.974472   17.341174
 H    8.102499   15.852807   18.605503
 H    5.772378    9.169307   19.841365
 H    3.519108    8.676316   18.178571
 H    3.966798    9.892441   22.022725
 H    2.354813   11.623440   22.814446
 H   -0.026315   11.497721   22.131022
 H   -0.802162    9.660528   20.660064
 H    0.818892    7.935380   19.862506
