41 
6oio_ligand_xtb.xyz
 C    0.172365   -0.467453   -0.130401
 C    1.371222    0.390138    0.038689
 C    3.785093    0.547674    0.068962
 C    2.622998   -0.195229   -0.108382
 C    1.271635    1.731080    0.401666
 C    2.425069    2.472063    0.590170
 C    3.669123    1.892589    0.416080
 C    5.106690   -0.076826   -0.095017
 C    7.611947   -1.260012   -0.394977
 C    6.592884   -1.942340    0.248415
 C    5.348546   -1.358143    0.394940
 C    7.380370    0.012426   -0.889845
 C    6.138781    0.601722   -0.738684
 O    0.139287   -1.655070    0.130322
 N   -0.902612    0.149027   -0.711500
 N   -2.158437   -0.478388   -0.640925
 S   -3.078361    0.243494    0.629308
 O   -2.862899   -0.414769    1.883451
 O   -2.770359    1.643851    0.534179
 C   -4.728188   -0.077431    0.040679
 C   -5.212697    0.668270   -1.015006
 C   -6.481839    0.397536   -1.499187
 C   -7.239867   -0.610857   -0.923001
 C   -6.739660   -1.350059    0.137871
 C   -5.470216   -1.083658    0.625232
 H    2.674337   -1.237946   -0.383403
 H    0.307528    2.186830    0.575388
 H    2.353003    3.509001    0.883231
 H    4.561484    2.478499    0.580746
 H    8.583177   -1.718082   -0.510521
 H    6.769467   -2.933914    0.638967
 H    4.561232   -1.887616    0.910710
 H    8.170431    0.547345   -1.396641
 H    5.959170    1.588089   -1.141443
 H   -0.997781    1.156469   -0.706252
 H   -1.965831   -1.459283   -0.427975
 H   -4.596704    1.449171   -1.430126
 H   -6.879874    0.970494   -2.322600
 H   -8.228982   -0.820186   -1.302104
 H   -7.336439   -2.130852    0.583900
 H   -5.046863   -1.629428    1.453318
