41 
6oiq_ligand_ani.xyz
 C   -5.631289   -9.532564   18.177676
 C   -6.552749  -10.700447   18.397350
 C   -7.093500  -13.061136   18.009158
 C   -6.258212  -11.950676   17.858865
 C   -7.738419  -10.557107   19.116048
 C   -8.598377  -11.635153   19.281754
 C   -8.268257  -12.872183   18.742180
 C   -6.784588  -14.392091   17.413728
 C   -6.319294  -16.919340   16.290986
 C   -6.747224  -16.808481   17.611126
 C   -6.986976  -15.555696   18.162986
 C   -6.118025  -15.768284   15.535207
 C   -6.336322  -14.514334   16.094892
 F   -5.097537  -12.108767   17.196213
 O   -4.990233   -9.350704   17.159067
 N   -5.568625   -8.683302   19.251146
 N   -4.580611   -7.684428   19.300812
 S   -3.524859   -7.767119   20.651947
 O   -2.427335   -6.877302   20.338435
 O   -4.348483   -7.618283   21.835406
 C   -2.969982   -9.447667   20.575417
 C   -3.523199  -10.392537   21.435841
 C   -3.148804  -11.725482   21.300398
 C   -2.232772  -12.098499   20.318635
 C   -1.680615  -11.139925   19.470977
 C   -2.049536   -9.804410   19.595165
 H   -8.006093   -9.584966   19.522394
 H   -9.519146  -11.515736   19.844801
 H   -8.949492  -13.709600   18.867295
 H   -6.140826  -17.898746   15.854984
 H   -6.907179  -17.700817   18.210703
 H   -7.322391  -15.475200   19.194941
 H   -5.778494  -15.844460   14.505902
 H   -6.166933  -13.615932   15.507375
 H   -5.944464   -8.947581   20.153858
 H   -4.044084   -7.697896   18.434212
 H   -4.231655  -10.072868   22.196242
 H   -3.574305  -12.474924   21.962682
 H   -1.943767  -13.142271   20.217135
 H   -0.962068  -11.433072   18.710046
 H   -1.622276   -9.039012   18.950013
