41 
6oir_ligand_dft.xyz
 C    4.963042   -1.049936    0.916578
 C    6.228998   -1.583896    1.130063
 C    7.351540   -0.962410    0.589963
 C    7.199729    0.195758   -0.167210
 C    5.933403    0.728407   -0.382546
 C    4.798872    0.113378    0.157200
 C    3.447031    0.683895   -0.069619
 C    2.356564   -0.144265   -0.330238
 C    3.231287    2.066562   -0.024688
 C    1.967430    2.599459   -0.236167
 C    0.910428    1.741896   -0.486198
 F   -0.305863    2.300828   -0.686379
 C    1.070322    0.358781   -0.538962
 C   -0.004771   -0.655947   -0.795313
 O    0.237773   -1.848682   -0.857215
 N   -1.280482   -0.186689   -0.974537
 N   -2.297812   -1.077829   -1.276954
 S   -3.160342   -1.603651    0.119405
 O   -2.292068   -1.698294    1.279561
 O   -3.927205   -2.738476   -0.365257
 C   -4.228458   -0.200868    0.359127
 C   -3.857735    0.779543    1.273943
 C   -4.682526    1.888481    1.438221
 C   -5.856818    1.999613    0.698453
 C   -6.217276    1.004684   -0.209129
 C   -5.400320   -0.105628   -0.386313
 H    4.094134   -1.528491    1.359620
 H    6.338416   -2.484639    1.726457
 H    8.339917   -1.379517    0.757266
 H    8.068892    0.681928   -0.600149
 H    5.821052    1.617513   -0.997298
 H    2.479087   -1.220623   -0.393380
 H    4.058278    2.733813    0.198622
 H    1.784538    3.667423   -0.198604
 H   -1.473540    0.783283   -1.167140
 H   -1.899501   -1.914558   -1.710811
 H   -2.946554    0.661045    1.850303
 H   -4.410038    2.661830    2.149305
 H   -6.499146    2.864694    0.832699
 H   -7.137835    1.092670   -0.777215
 H   -5.663851   -0.895208   -1.082021
