41 
6oir_ligand_ani.xyz
 C    7.355727   14.652346   15.437952
 C    7.453387   15.725228   14.559764
 C    7.703212   17.005379   15.047076
 C    7.860581   17.201288   16.416443
 C    7.777699   16.123074   17.290563
 C    7.522054   14.834401   16.814209
 C    7.426413   13.682342   17.749248
 C    6.419477   12.728572   17.605284
 C    8.345927   13.526622   18.791796
 C    8.263957   12.444376   19.657384
 C    7.244987   11.523969   19.482546
 F    7.189398   10.491015   20.357365
 C    6.303803   11.637789   18.464351
 C    5.165843   10.691697   18.197683
 O    4.331020   10.928617   17.335779
 N    5.099749    9.566968   18.951577
 N    4.130326    8.589864   18.650197
 S    3.646580    7.594668   19.960226
 O    4.875540    7.344326   20.696413
 O    2.834106    6.543915   19.387446
 C    2.620631    8.632095   20.961156
 C    3.201507    9.374316   21.985671
 C    2.398805   10.214905   22.748667
 C    1.032100   10.298996   22.490871
 C    0.462083    9.539587   21.471325
 C    1.254302    8.696095   20.700263
 H    7.162324   13.651193   15.058026
 H    7.325797   15.561414   13.492962
 H    7.774121   17.846633   14.362799
 H    8.056661   18.196538   16.806737
 H    7.893256   16.282658   18.360555
 H    5.675036   12.821591   16.820520
 H    9.147799   14.249336   18.913252
 H    8.971647   12.306150   20.468527
 H    5.786609    9.273471   19.634569
 H    3.350880    9.005404   18.143331
 H    4.266033    9.274222   22.182466
 H    2.839202   10.802632   23.549028
 H    0.406840   10.957036   23.089727
 H   -0.604989    9.603529   21.277707
 H    0.828567    8.082742   19.910540
