21 
6oja_ligand_dft.xyz
 N    0.740807    1.118867   -1.348163
 C    1.273875    0.898133    0.046678
 C    1.856088   -0.512716    0.157742
 O    2.013355   -1.073155    1.203372
 C    0.213031    1.187636    1.115591
 C   -0.962627    0.207687    1.187080
 S   -2.037524    0.307835   -0.295800
 C   -2.778014   -1.348470   -0.304826
 O    2.197856   -0.994796   -1.047081
 H    1.353421    0.688942   -2.049647
 H   -0.217742    0.684303   -1.405272
 H    0.639737    2.115782   -1.557751
 H    2.113159    1.590840    0.169495
 H    0.736453    1.152804    2.075253
 H   -0.144688    2.217143    0.994634
 H   -0.596049   -0.817076    1.296076
 H   -1.560250    0.441017    2.071359
 H   -3.452489   -1.391237   -1.162034
 H   -3.358115   -1.497653    0.607735
 H   -2.016089   -2.124612   -0.400339
 H    2.613590   -1.867708   -0.933480
