21 
6oja_ligand_ani.xyz
 N    0.882523    1.702438   -0.227782
 C    1.287535    0.576251    0.683117
 C    1.917455   -0.508449   -0.179849
 O    2.002659   -1.681206    0.078782
 C    0.163036    0.037714    1.570523
 C   -0.999736   -0.651381    0.854824
 S   -2.030800    0.490465   -0.116304
 C   -3.130026   -0.702045   -0.910262
 O    2.433445    0.039159   -1.304725
 H    1.515378    1.684813   -1.045661
 H   -0.096310    1.548160   -0.544997
 H    0.959680    2.610238    0.254391
 H    2.094594    0.934019    1.327600
 H    0.619084   -0.704784    2.233046
 H   -0.213946    0.844095    2.209179
 H   -0.608380   -1.423539    0.185743
 H   -1.638980   -1.138035    1.598219
 H   -3.771309   -0.157161   -1.606659
 H   -3.760865   -1.216210   -0.179418
 H   -2.553525   -1.436909   -1.479854
 H    2.851308   -0.685359   -1.798812
