75 
6oos_ligand_xtb.xyz
 N   -6.986577    2.253341   -0.952051
 C   -6.096675    1.213804   -1.007552
 C   -6.076148    0.241853    0.000501
 C   -5.132880   -0.763145   -0.019486
 C   -4.202294   -0.811250   -1.042189
 C   -4.205502    0.139231   -2.047628
 C   -5.148391    1.145299   -2.034950
 S   -2.973358   -2.103543   -1.028505
 O   -3.594136   -3.371778   -0.791804
 O   -2.174049   -1.964358   -2.222077
 N   -1.989871   -1.763556    0.265121
 C   -2.153537   -2.493591    1.498484
 C   -0.828744   -3.098759    1.983595
 C   -0.314601   -4.106677    0.960553
 C   -1.027180   -3.756067    3.346496
 C   -1.467437   -0.418464    0.313063
 C   -0.094113   -0.294425   -0.372657
 O   -0.200477   -0.180296   -1.767692
 C    0.688368    0.934423    0.132987
 N    2.027245    0.860657   -0.406934
 C    3.126183    0.961466    0.359533
 O    3.135553    1.164954    1.548497
 O    4.246654    0.813157   -0.398575
 C    5.470976    0.942100    0.300847
 C    5.852834   -0.309144    1.113517
 O    7.255563   -0.215615    1.250490
 C    7.771646    0.254336    0.046277
 O    8.103684   -0.808016   -0.817978
 C    7.751158   -0.444645   -2.135095
 C    6.473187    0.388404   -2.008964
 C    6.662123    1.087452   -0.658252
 C    0.035793    2.267647   -0.278345
 C   -1.031951    2.834913    1.918762
 C   -2.134978    3.140783    2.695012
 C   -3.388008    3.243160    2.113713
 C   -3.529048    3.050462    0.750546
 C   -2.423623    2.743426   -0.023863
 C   -1.164842    2.620716    0.551136
 H   -7.787616    2.150542   -0.352324
 H   -7.134382    2.786296   -1.792415
 H   -6.807390    0.287902    0.793593
 H   -5.114412   -1.525093    0.743555
 H   -3.469142    0.067460   -2.832292
 H   -5.161330    1.889895   -2.817223
 H   -2.577606   -1.840184    2.273712
 H   -2.858685   -3.297881    1.283339
 H   -0.098350   -2.288323    2.085891
 H   -0.260171   -3.648367   -0.023888
 H   -0.991799   -4.955232    0.897904
 H    0.673131   -4.466872    1.238703
 H   -1.768076   -4.549239    3.278928
 H   -1.365342   -3.029051    4.081674
 H   -0.092444   -4.186976    3.695854
 H   -2.168146    0.256145   -0.188731
 H   -1.385376   -0.106940    1.356740
 H    0.492584   -1.192608   -0.115152
 H   -0.821825   -0.866965   -2.084045
 H    0.792695    0.884807    1.220972
 H    2.113594    0.671362   -1.392862
 H    5.406947    1.803433    0.976721
 H    5.567530   -1.212249    0.557819
 H    5.412631   -0.328129    2.108904
 H    8.676199    0.831939    0.287570
 H    7.622540   -1.363982   -2.706779
 H    8.559023    0.151201   -2.585997
 H    6.356059    1.092489   -2.828665
 H    5.598932   -0.259065   -1.973012
 H    6.956140    2.128974   -0.779950
 H   -0.233185    2.202620   -1.332857
 H    0.792489    3.047212   -0.157927
 H   -0.055173    2.765954    2.375134
 H   -2.016616    3.303501    3.756384
 H   -4.249533    3.480986    2.720051
 H   -4.501241    3.137572    0.288872
 H   -2.540741    2.596214   -1.088207
