75 
6oot_ligand_ani.xyz
 N   -7.932768    1.750442   -0.558014
 C   -6.853357    0.883814   -0.718433
 C   -6.865590   -0.388317   -0.134288
 C   -5.767017   -1.225420   -0.245382
 C   -4.633604   -0.803021   -0.932307
 C   -4.614838    0.450665   -1.535107
 C   -5.712036    1.291912   -1.421680
 S   -3.229320   -1.877341   -1.060594
 O   -3.688226   -3.241094   -0.881250
 O   -2.509616   -1.484049   -2.272065
 N   -2.223726   -1.509706    0.212944
 C   -2.525881   -2.069105    1.532950
 C   -1.288682   -2.623665    2.243798
 C   -0.697920   -3.812113    1.481355
 C   -1.648532   -3.011891    3.678515
 C   -1.482566   -0.245435    0.179103
 C   -0.064833   -0.398305   -0.387902
 O   -0.029525   -0.302300   -1.792785
 C    0.951723    0.616978    0.141137
 N    2.249456    0.186713   -0.347300
 C    3.378304    0.647929    0.261527
 O    3.418808    1.245019    1.319054
 O    4.471202    0.336831   -0.480540
 C    5.715087    0.807307    0.063771
 C    6.201704   -0.025247    1.248532
 O    7.605055    0.196617    1.265844
 C    8.068827    0.293261   -0.050754
 O    8.559232   -0.946427   -0.508498
 C    8.119517   -1.154840   -1.841280
 C    6.727429   -0.532743   -1.903172
 C    6.856232    0.662341   -0.951232
 C    0.668993    2.078691   -0.267920
 C   -0.677084    2.838419    1.728682
 C   -1.839657    3.341665    2.304393
 C   -2.913891    3.719745    1.501700
 C   -2.809198    3.596347    0.119641
 C   -1.642312    3.097447   -0.455217
 C   -0.568544    2.693743    0.342669
 H   -8.821357    1.300822   -0.387087
 H   -8.008092    2.466514   -1.266987
 H   -7.747855   -0.715861    0.410569
 H   -5.790461   -2.221687    0.187397
 H   -3.747219    0.756523   -2.113503
 H   -5.696703    2.280886   -1.874142
 H   -2.986232   -1.283562    2.149784
 H   -3.264539   -2.865701    1.402669
 H   -0.530562   -1.827368    2.288314
 H   -0.467396   -3.553281    0.441271
 H   -1.405769   -4.651579    1.463687
 H    0.222506   -4.162892    1.960390
 H   -2.417807   -3.794582    3.683740
 H   -2.036415   -2.154486    4.240775
 H   -0.774180   -3.399260    4.212991
 H   -2.027334    0.495937   -0.410354
 H   -1.425566    0.123505    1.206402
 H    0.312885   -1.389525   -0.077314
 H   -0.804158   -0.774537   -2.146604
 H    1.000144    0.561310    1.234423
 H    2.312860   -0.014522   -1.336567
 H    5.600033    1.853041    0.364202
 H    5.981342   -1.091035    1.094935
 H    5.778150    0.299117    2.201212
 H    8.891935    1.021026   -0.045888
 H    8.131081   -2.233407   -2.020909
 H    8.804944   -0.675398   -2.557945
 H    6.426974   -0.243802   -2.912546
 H    5.986540   -1.239049   -1.518661
 H    7.025320    1.597705   -1.496170
 H    0.618161    2.126829   -1.361715
 H    1.546140    2.654025    0.051679
 H    0.157835    2.549732    2.367702
 H   -1.907059    3.437320    3.385128
 H   -3.821639    4.111210    1.952624
 H   -3.637316    3.897218   -0.518453
 H   -1.569890    2.986376   -1.535627
