38 
6ooy_ligand_xtb.xyz
 C    1.480885   -0.022735   -0.574460
 C    1.146826    1.001132    0.300460
 C    2.112823    1.820140    0.865769
 C    3.442228    1.595629    0.534866
 C    3.783521    0.580844   -0.338102
 C    2.819068   -0.240911   -0.905777
 C    0.404538   -0.898434   -1.181455
 C    3.221797   -1.341871   -1.838825
 N   -0.826424   -0.879170   -0.442135
 C   -2.795434   -0.325524    0.421582
 C   -3.980095    0.391603    0.546409
 C   -4.196125    1.427707   -0.336811
 C   -3.265075    1.757177   -1.324736
 C   -2.083332    1.059347   -1.467463
 O    1.051542   -2.425497    1.322327
 C   -0.292404   -2.794345    1.101225
 C   -1.157390   -1.675324    0.620676
 C   -1.861138    0.012345   -0.586268
 N   -2.310078   -1.379746    1.151489
 C    1.735713    2.922548    1.808229
 H    0.109970    1.174453    0.553102
 H    4.212793    2.220079    0.963441
 H    4.823304    0.419687   -0.584706
 H    0.760856   -1.930379   -1.225616
 H    0.194492   -0.563928   -2.204727
 H    2.997378   -2.311825   -1.394617
 H    2.688795   -1.269922   -2.785988
 H    4.289280   -1.298815   -2.038863
 H   -4.695262    0.135986    1.311415
 H   -5.106225    2.005126   -0.266901
 H   -3.476172    2.580453   -1.991124
 H   -1.362718    1.324454   -2.227123
 H    1.078659   -1.715760    1.973524
 H   -0.753680   -3.202083    2.009172
 H   -0.256312   -3.587988    0.346087
 H    0.660987    2.946501    1.970779
 H    2.231273    2.788028    2.769066
 H    2.047329    3.886361    1.407083
