80 
6oqb_ligand_xtb.xyz
 C    6.338665    2.011636   -1.010659
 C    5.983629    0.550227   -0.739047
 C    5.026988    0.361439    0.429373
 C    5.556892    0.906922    1.747030
 C    4.527418    0.868379    2.886840
 C    3.296444    1.645841    2.532192
 C    2.199334    1.056390    2.085890
 C    0.960007    1.737200    1.585300
 O   -0.173784    0.910579    1.723952
 C    1.183964    2.142283    0.112499
 C    1.800317    3.527899   -0.144387
 C    0.658354    3.848238   -1.120719
 C   -0.075259    2.570897   -0.673670
 C   -0.572545    1.658853   -1.799951
 N   -1.072880    0.377782   -1.340366
 C   -2.312031    0.464593   -0.586602
 C   -3.397546   -0.490070   -1.125101
 C   -3.741402   -0.154254   -2.581148
 C   -4.656499    1.057937   -2.684071
 C   -5.989406    0.733647   -2.024564
 C   -5.802801    0.199607   -0.632423
 C   -6.871861    0.270543    0.253725
 C   -6.756401   -0.230830    1.535699
Cl   -8.103054   -0.129338    2.617414
 C   -5.573784   -0.813587    1.958989
 C   -4.512877   -0.882534    1.078101
 C   -4.606975   -0.385305   -0.219495
 C   -2.813231   -1.920551   -1.079193
 O   -1.892981   -2.118204   -0.029295
 C   -0.587137   -1.806971   -0.335154
 C    0.356466   -2.736799    0.085290
 C    1.688607   -2.635924   -0.259518
 C    2.060214   -1.609738   -1.122158
 C    1.124245   -0.660991   -1.524788
 C   -0.197420   -0.656865   -1.066479
 C    3.405011   -1.533524   -1.706792
 O    3.636397   -1.105674   -2.819268
 N    4.439319   -2.019835   -0.910154
 S    4.785352   -1.443995    0.650377
 O    3.655435   -1.709161    1.485076
 O    6.037037   -2.048426    0.987268
 H    6.886485    2.084267   -1.946358
 H    5.435867    2.612008   -1.096023
 H    6.962277    2.427024   -0.224474
 H    5.525812    0.148909   -1.644661
 H    6.893041   -0.018433   -0.531517
 H    4.033834    0.754985    0.212620
 H    6.430854    0.316682    2.029916
 H    5.870055    1.942552    1.598813
 H    4.258232   -0.166700    3.090430
 H    4.991499    1.292036    3.779848
 H    3.359194    2.723185    2.611135
 H    2.184447   -0.024962    2.006973
 H    0.732557    2.635521    2.170971
 H    0.078183    0.008935    1.485508
 H    1.732284    1.347431   -0.391716
 H    2.801246    3.527147   -0.571187
 H    1.796938    4.162965    0.738920
 H    0.967021    3.811340   -2.163778
 H    0.132155    4.783396   -0.943702
 H   -0.894522    2.784987    0.014680
 H    0.220481    1.506231   -2.531383
 H   -1.392035    2.166048   -2.320848
 H   -2.139506    0.261574    0.474908
 H   -2.686230    1.485073   -0.660182
 H   -2.813713    0.016058   -3.130975
 H   -4.246716   -1.012150   -3.032030
 H   -4.812630    1.318873   -3.732266
 H   -4.203897    1.919007   -2.189772
 H   -6.510235   -0.024454   -2.618807
 H   -6.628767    1.618176   -1.995524
 H   -7.800340    0.720045   -0.064772
 H   -5.485949   -1.205717    2.959453
 H   -3.594839   -1.348302    1.400720
 H   -2.326855   -2.145964   -2.036508
 H   -3.613548   -2.648176   -0.915395
 H   -0.000912   -3.566005    0.675426
 H    2.406894   -3.364914    0.071069
 H    1.473510    0.085902   -2.219264
 H    5.305919   -2.137967   -1.420611
