77 
6oqc_ligand_xtb.xyz
 C    2.425650    0.131505    2.215080
 C    3.179044    1.430510    2.465598
 C    4.674756    1.148913    2.450946
 C    5.087943    0.386327    1.223252
 C    6.425126    0.421506    0.844099
 C    6.862823   -0.288842   -0.256760
Cl    8.532076   -0.223691   -0.707655
 C    5.976693   -1.052041   -0.998344
 C    4.648573   -1.083989   -0.622189
 C    4.183998   -0.374306    0.482599
 C    2.710014   -0.435427    0.819871
 C    1.931387    0.340333   -0.268587
 C    2.189110   -1.891141    0.778129
 O    1.841848   -2.322104   -0.516884
 C    0.542075   -2.071557   -0.904639
 C   -0.077653   -3.109337   -1.581901
 C   -1.406863   -3.038597   -1.944021
 C   -2.139405   -1.922837   -1.564873
 C   -1.509840   -0.844246   -0.959502
 C   -0.148047   -0.864286   -0.649216
 N    0.498998    0.229161   -0.094986
 C   -0.210489    1.451953    0.205497
 C   -0.542415    2.315754   -1.012207
 C    0.579598    3.105771   -1.711975
 C   -0.361459    4.315823   -1.798886
 C   -1.260967    3.652776   -0.739275
 C   -2.783103    3.712874   -0.938366
 O   -3.210255    2.967299   -2.053728
 C   -3.502038    3.223267    0.288483
 C   -4.523430    2.384720    0.268408
 C   -5.262797    1.911164    1.478940
 C   -5.332193    0.379824    1.511203
 C   -3.951384   -0.244422    1.594956
 C   -3.393978   -0.379656    2.995469
 S   -4.055735   -1.931360    0.912638
 O   -2.799268   -2.598335    1.048636
 O   -5.228472   -2.570592    1.428337
 N   -4.388955   -1.657378   -0.733589
 C   -3.591704   -1.922093   -1.836374
 O   -4.092321   -2.144950   -2.912513
 H    1.349871    0.278382    2.325443
 H    2.739085   -0.603387    2.960783
 H    2.938290    2.165496    1.695405
 H    2.888811    1.851212    3.430238
 H    5.241348    2.080232    2.512621
 H    4.936017    0.551145    3.330252
 H    7.127194    1.007792    1.417528
 H    6.321126   -1.610391   -1.854063
 H    3.957765   -1.689657   -1.187816
 H    2.227160   -0.039695   -1.251809
 H    2.217524    1.389929   -0.229678
 H    2.968148   -2.577303    1.123974
 H    1.319873   -1.985578    1.440166
 H    0.509416   -3.990434   -1.788216
 H   -1.888926   -3.853556   -2.458378
 H   -2.100044    0.036174   -0.768925
 H    0.408318    2.032512    0.896711
 H   -1.138812    1.207166    0.731288
 H   -1.100976    1.724788   -1.739451
 H    1.423187    3.308102   -1.054665
 H    0.949202    2.700157   -2.650860
 H    0.060000    5.283564   -1.535293
 H   -0.842894    4.399352   -2.772677
 H   -1.023664    4.031758    0.256883
 H   -3.050618    4.779338   -1.077707
 H   -2.737592    3.279140   -2.833030
 H   -3.140668    3.642796    1.218263
 H   -4.865109    1.995257   -0.679743
 H   -6.282709    2.303077    1.446921
 H   -4.785679    2.289328    2.384450
 H   -5.936412    0.041025    2.353324
 H   -5.815969    0.032848    0.597086
 H   -3.256669    0.276192    0.939486
 H   -3.260059    0.595945    3.459018
 H   -2.435827   -0.892601    2.957859
 H   -4.074109   -0.971527    3.604166
 H   -5.375844   -1.758559   -0.934905
