62 
6ovc_ligand_xtb.xyz
 N    0.900400    0.481443    0.780211
 C    0.215505   -0.637583    0.355998
 C   -1.171539   -0.754831    0.416267
 C   -1.820529   -1.903370   -0.028950
 C   -3.295768   -2.026241   -0.019464
 C   -1.081841   -2.951491   -0.570225
 C    0.948205   -1.734764   -0.147883
 C    0.577503    3.472578   -0.561693
 C   -1.102229    3.805863    0.761859
 C    6.140045   -1.088166   -1.525681
 C    4.820319   -1.164984   -1.122029
 C    5.362857   -0.060617    0.921123
Cl    8.721109   -0.385131   -1.173631
Cl    4.911627    0.593850    2.454997
 C    0.240094    1.652380    1.299746
 O    2.313698   -1.743673   -0.217771
 C    0.294473   -2.865601   -0.613507
 C    2.964072   -0.736350    0.524137
 C    2.248914    0.608105    0.296840
 O   -3.908300   -2.727493   -0.796488
 C   -0.373760    2.557920    0.232347
 C   -0.333905    4.669200   -0.250377
 C    6.689893    0.028787    0.537077
 C    7.070701   -0.490038   -0.690643
 C    4.407834   -0.660423    0.104318
 S   -5.660639   -1.156988    0.938884
 O   -5.892481   -0.057786    1.828625
 O   -6.239443   -2.416473    1.271088
 N   -3.964176   -1.271453    0.904107
 C   -6.074183   -0.684443   -0.770091
 C   -5.179108    0.438124   -1.152230
 C   -5.361370    1.695720   -0.585559
 C   -4.498690    2.732389   -0.893906
 C   -3.442302    2.524504   -1.766083
 C   -3.251096    1.273515   -2.327912
 C   -4.115657    0.235945   -2.025686
 H   -1.755385    0.078681    0.771588
 H   -1.598792   -3.823624   -0.935450
 H    0.703373    3.228996   -1.614699
 H    1.560282    3.563181   -0.102588
 H   -2.185187    3.798182    0.666231
 H   -0.840221    4.032378    1.793781
 H    6.446424   -1.488764   -2.478478
 H    4.086027   -1.636430   -1.755093
 H    0.980865    2.218230    1.873624
 H   -0.540170    1.333398    1.997331
 H    0.894167   -3.672433   -1.003489
 H    2.901430   -0.978023    1.596936
 H    2.761027    1.397117    0.847970
 H    2.286036    0.840139   -0.777862
 H   -1.007415    1.963599   -0.428465
 H   -0.942188    4.973582   -1.099063
 H    0.161369    5.548194    0.155837
 H    7.414811    0.493993    1.185425
 H   -3.473978   -0.706650    1.575953
 H   -5.925571   -1.579654   -1.365087
 H   -7.124080   -0.406091   -0.729698
 H   -6.174556    1.851168    0.106068
 H   -4.655174    3.707427   -0.456137
 H   -2.774158    3.336178   -2.012174
 H   -2.428829    1.103646   -3.007409
 H   -3.968379   -0.736128   -2.471040
