80 
6oxr_ligand_ani.xyz
 C    1.432704    0.962684    0.726154
 C   -1.993036   -1.920444    2.051321
 C   -2.358060   -0.476451    1.687300
 C   -3.135343   -2.739527    1.468156
 C   -3.012319   -3.083055   -0.020567
 C   -3.393437    1.179217   -1.267076
 C   -2.475586    0.367158   -1.942581
 C   -1.133547    0.718771   -2.013065
 C   -0.705470    1.903587   -1.418443
 C   -1.606268    2.730948   -0.752710
 C   -2.939473    2.358264   -0.667892
 C    1.476379    3.440926    0.934676
 C    2.750578    3.633745    1.762537
 C    2.556247   -0.017609    0.343254
 C    2.632413   -1.191411    1.333151
 C    0.349405   -1.721703    1.995853
 C   -4.327006   -1.764782    1.490635
 C   -4.461001   -2.971349   -0.493163
 C    3.909944   -2.025848    1.172060
 C    4.039720   -2.687817   -0.178858
 C    3.526127   -3.969990   -0.391930
 C    3.632202   -4.582718   -1.637770
 C    4.250954   -3.916981   -2.691613
 C    4.760565   -2.636537   -2.492484
 C    4.652956   -2.025300   -1.247426
 C   -5.628460    1.554483   -2.361919
 C   -4.876886    0.837338   -1.247848
 C    3.917970    4.099480    0.889285
 C    2.489088    4.622505    2.897619
 N    1.556599    2.264907    0.065439
 N    1.454128   -2.037539    1.259052
 O    1.075014    3.769786   -1.899878
 O    1.699759    1.350611   -2.279315
 O    3.811681    0.641840    0.356559
 O    0.328268   -0.980971    2.958755
 O   -0.740756   -2.334546    1.478802
 O   -3.778727   -0.449610    1.531864
 O   -5.066206   -1.957538    0.315262
 O   -5.465993    1.205796   -0.018838
 S    1.005938    2.371280   -1.508489
 H    1.476765    1.142173    1.803969
 H    0.452321    0.512497    0.518421
 H   -1.944343   -2.038163    3.138570
 H   -2.070815    0.221942    2.478711
 H   -1.883000   -0.163600    0.748352
 H   -3.337989   -3.635892    2.064536
 H   -2.395139   -2.340583   -0.540581
 H   -2.583971   -4.070636   -0.201635
 H   -2.813675   -0.551463   -2.419813
 H   -0.410468    0.091264   -2.524221
 H   -1.269626    3.667061   -0.314525
 H   -3.649140    2.976585   -0.123306
 H    0.610966    3.328075    1.606001
 H    1.295197    4.316105    0.303998
 H    3.018693    2.659716    2.195356
 H    2.351409   -0.402963   -0.665391
 H    2.633818   -0.769049    2.343745
 H   -5.001291   -1.860958    2.352733
 H   -5.006639   -3.917285   -0.368519
 H   -4.556175   -2.658495   -1.538141
 H    4.771812   -1.376901    1.357381
 H    3.892174   -2.791435    1.956150
 H    3.037584   -4.491463    0.430463
 H    3.229379   -5.581479   -1.783910
 H    4.335801   -4.393380   -3.664720
 H    5.244409   -2.110990   -3.311399
 H    5.026656   -1.013969   -1.097682
 H   -6.692433    1.306556   -2.311683
 H   -5.242072    1.264419   -3.345046
 H   -5.515778    2.637851   -2.246631
 H   -4.973268   -0.251164   -1.386972
 H    4.119967    3.403549    0.066889
 H    3.708562    5.082521    0.447518
 H    4.833805    4.188800    1.483964
 H    3.386355    4.763359    3.510239
 H    2.200607    5.603395    2.497992
 H    1.683489    4.275495    3.554706
 H    1.279534   -2.550356    0.405612
 H    3.748163    1.325671   -0.325146
 H   -5.054244    0.642679    0.662762
