86 
6oxs_ligand_dft.xyz
 C   -2.462797   -2.854701    4.628311
 C   -1.479199   -0.358337    0.711902
 C    3.224472    0.299434    0.171872
 C    5.674895   -1.547270    0.484257
 C    6.508092   -0.289119   -1.367630
 C    5.994072   -0.931011   -2.665477
 C   -6.293328    0.294149   -1.450974
 C   -5.016432    0.472691   -1.986013
 C   -3.976201   -0.380228   -1.638266
 C   -4.223598   -1.420233   -0.742668
 C   -5.491460   -1.618488   -0.201489
 C   -6.521042   -0.758884   -0.563750
 C   -2.684623   -1.814947    2.367227
 C   -1.782472   -2.659185    3.271830
 C   -0.392295   -2.043446    3.434633
 C   -0.172201   -0.451488   -0.092550
 C    0.797134    0.673553    0.293566
 C    5.486566   -0.203383   -0.227015
 C    7.529163   -1.326722   -0.815702
 C    7.103103   -1.931767   -2.987507
 C    0.220154    2.072979    0.039017
 C    1.152722    3.227370    0.416974
 C    0.560722    4.563298   -0.053181
 C    1.455126    5.751636    0.308103
 C    1.738478    5.791657    1.811635
 C    2.340782    4.468730    2.290058
 C    1.456737    3.273497    1.921721
 C   -7.411082    2.462166   -0.865666
 C   -7.410352    1.261518   -1.805355
 N   -2.125543   -1.643297    1.014358
 N    2.031169    0.472376   -0.440538
 O   -3.444614   -3.672399    0.365842
 O   -1.941401   -2.554952   -1.325470
 O   -0.364824   -0.358193   -1.490867
 O    3.437211    0.405794    1.365784
 O    4.176239   -0.003884   -0.744264
 O    7.076447   -1.744628    0.437341
 O    7.545927   -2.401628   -1.728861
 O   -7.272275    1.778175   -3.115473
 S   -2.883683   -2.465692   -0.213370
 H   -1.852454   -3.486913    5.280894
 H   -3.443493   -3.331259    4.520050
 H   -2.606735   -1.893057    5.137423
 H   -1.252000    0.079343    1.686775
 H   -2.171069    0.330409    0.206658
 H    5.361621   -1.531918    1.527604
 H    5.135032   -2.341504   -0.052088
 H    6.980664    0.676406   -1.561729
 H    5.827250   -0.200431   -3.460397
 H    5.052046   -1.457377   -2.491025
 H   -4.847275    1.283476   -2.687537
 H   -2.983478   -0.239497   -2.053880
 H   -5.668349   -2.451982    0.469967
 H   -7.516907   -0.914958   -0.156151
 H   -2.841492   -0.820373    2.804948
 H   -3.666104   -2.290460    2.298197
 H   -1.678097   -3.636200    2.784167
 H   -0.453478   -1.047404    3.893443
 H    0.121162   -1.948199    2.472709
 H    0.234196   -2.666156    4.081217
 H    0.309248   -1.406984    0.158797
 H    1.046689    0.554396    1.351609
 H    5.728794    0.609326    0.461758
 H    8.545451   -0.942399   -0.676047
 H    7.928486   -1.447236   -3.533212
 H    6.766761   -2.794740   -3.566986
 H   -0.044129    2.145422   -1.023158
 H   -0.718087    2.182805    0.601368
 H    2.105948    3.080790   -0.112366
 H   -0.425952    4.700483    0.415916
 H    0.390425    4.532063   -1.136897
 H    2.406836    5.664666   -0.235165
 H    0.988867    6.688180   -0.019611
 H    2.409278    6.624868    2.051921
 H    0.797391    5.976771    2.349460
 H    2.504382    4.493138    3.373612
 H    3.328466    4.333243    1.827138
 H    1.953032    2.349492    2.235868
 H    0.504656    3.340823    2.472026
 H   -8.216316    3.148305   -1.141861
 H   -6.456815    2.992573   -0.941358
 H   -7.552942    2.141868    0.170677
 H   -8.372048    0.733900   -1.703532
 H    1.952950    0.266633   -1.426253
 H   -0.773477   -1.196084   -1.764420
 H   -7.291877    1.036163   -3.732780
