86 
6oxs_ligand_ani.xyz
 C   -1.945078   -2.688992    4.733821
 C   -1.437955    0.060054    0.782873
 C    3.183697    0.405032    0.130927
 C    5.155936   -1.919246    0.381729
 C    6.359432   -0.762090   -1.337622
 C    5.792256   -1.166535   -2.703451
 C   -6.474254   -0.076452   -1.323363
 C   -5.238733    0.244415   -1.891879
 C   -4.081239   -0.400765   -1.480857
 C   -4.158213   -1.377720   -0.489534
 C   -5.381176   -1.717943    0.079383
 C   -6.532367   -1.062655   -0.337123
 C   -2.344066   -1.464176    2.594717
 C   -1.459152   -2.505543    3.294928
 C    0.019582   -2.119876    3.257517
 C   -0.137889   -0.048149   -0.030456
 C    0.851872    1.079905    0.289967
 C    5.310168   -0.532812   -0.241889
 C    7.093946   -2.040871   -0.844327
 C    6.668612   -2.356085   -3.085665
 C    0.261510    2.473833    0.051141
 C    1.272747    3.619406    0.190660
 C    0.583697    4.966880   -0.059965
 C    1.556276    6.143129    0.051953
 C    2.258080    6.147812    1.411888
 C    2.952445    4.808853    1.670357
 C    1.973678    3.637130    1.555551
 C   -7.828179    2.023153   -1.039918
 C   -7.725008    0.676084   -1.740513
 N   -1.996703   -1.232577    1.189896
 N    2.058283    0.867675   -0.486334
 O   -3.109039   -3.439514    0.723642
 O   -1.792235   -2.289097   -1.097742
 O   -0.365478   -0.026483   -1.422160
 O    3.377126    0.378173    1.331266
 O    4.083199   -0.022585   -0.791518
 O    6.468938   -2.460529    0.334991
 O    6.961841   -3.008807   -1.860498
 O   -7.740807    0.947665   -3.134824
 S   -2.696366   -2.221909    0.050788
 H   -1.361259   -3.457931    5.251738
 H   -2.998611   -2.989947    4.760603
 H   -1.845217   -1.754122    5.301534
 H   -1.207698    0.590857    1.710973
 H   -2.170287    0.661122    0.224922
 H    4.821037   -1.885313    1.420536
 H    4.463335   -2.539125   -0.204729
 H    7.041384    0.091526   -1.419260
 H    5.821172   -0.355308   -3.433806
 H    4.752836   -1.489019   -2.596758
 H   -5.194686    1.000515   -2.669719
 H   -3.129021   -0.147474   -1.941442
 H   -5.422108   -2.503132    0.829031
 H   -7.491745   -1.327500    0.101889
 H   -2.249256   -0.503195    3.116578
 H   -3.395167   -1.768742    2.657930
 H   -1.587994   -3.450812    2.753022
 H    0.195516   -1.159757    3.762475
 H    0.385975   -2.034618    2.227869
 H    0.626506   -2.879677    3.762282
 H    0.349080   -0.997404    0.249052
 H    1.150954    0.983133    1.339448
 H    5.685913    0.172376    0.505287
 H    8.160078   -1.912704   -0.611416
 H    7.594604   -2.027971   -3.583819
 H    6.169450   -3.085477   -3.729529
 H   -0.178595    2.497551   -0.954234
 H   -0.564461    2.640774    0.757444
 H    2.049292    3.486724   -0.579129
 H   -0.220771    5.090629    0.681987
 H    0.101895    4.959301   -1.046711
 H    2.312554    6.060693   -0.742661
 H    1.030684    7.091339   -0.114081
 H    2.978178    6.973087    1.471529
 H    1.512851    6.324212    2.201369
 H    3.432174    4.806608    2.656801
 H    3.756180    4.670168    0.931767
 H    2.505904    2.693233    1.729508
 H    1.210359    3.720771    2.345692
 H   -8.717178    2.558249   -1.385885
 H   -6.944932    2.629833   -1.266154
 H   -7.891514    1.893555    0.044880
 H   -8.600359    0.063598   -1.468355
 H    1.924892    0.580527   -1.447081
 H   -0.803928   -0.868617   -1.636361
 H   -7.719324    0.097083   -3.592926
