89 
6oxt_ligand_ani.xyz
 C   -0.147261    0.642102   -0.439485
 C    1.237127    1.276778   -0.583899
 C    3.495815    0.478350   -0.218417
 C    5.677364   -0.397037   -0.154196
 C    5.995073   -0.372749    1.339972
 C    7.634534   -1.687778    0.413428
 C    6.883365   -3.827849    0.009746
 C    1.409196    2.125311   -1.862649
 C   -4.211517   -3.614320   -0.254534
 C   -5.211767   -2.574664   -0.773733
 C   -5.524360   -1.508410    0.280934
 C   -4.275910   -0.838568    0.872541
 C   -3.213316   -1.864593    1.287382
 C   -2.924794   -2.924914    0.220956
 C   -2.797439    2.091768    1.627756
 C   -1.289026    1.653037   -0.295258
 C    6.524571   -1.568270   -0.668354
 C    5.827578   -2.933643   -0.634168
 C    0.741919    3.482897   -1.822670
 C   -0.295635    3.819830   -2.695508
 C   -0.912909    5.067419   -2.625567
 C   -0.495411    6.001751   -1.683320
 C    0.548129    5.682892   -0.817209
 C    1.161421    4.436694   -0.890044
 C   -5.092459   -5.455967   -1.805053
 C   -2.491991    0.247032    4.215255
 C   -1.765295    2.258240    2.751053
 C   -1.376927    0.930619    3.422643
 C   -2.281079    3.284758    3.761319
 C   -3.879305   -4.681998   -1.300901
 N   -2.374867    1.147709    0.575947
 N    2.201277    0.194538   -0.534626
 O   -4.736277    1.399094   -0.442518
 O   -3.087390   -0.220034   -1.437664
 O   -0.317074   -0.225254   -1.538266
 O    3.899778    1.545353    0.201831
 O    4.282343   -0.606128   -0.430809
 O    7.368237   -0.733025    1.400881
 O    7.559730   -2.994199    0.937455
 O   -2.945358   -5.569513   -0.697217
 S   -3.662298    0.433700   -0.259282
 H   -0.108534    0.051740    0.492736
 H    1.443895    1.905299    0.289319
 H    5.996136    0.540385   -0.619511
 H    5.379967   -1.103784    1.883276
 H    5.866314    0.614430    1.788673
 H    8.658804   -1.504084    0.060752
 H    6.468220   -4.668284    0.572881
 H    7.584648   -4.224504   -0.741337
 H    1.057272    1.537917   -2.718878
 H    2.488852    2.275258   -1.983436
 H   -4.659440   -4.134294    0.609051
 H   -6.153105   -3.057351   -1.062072
 H   -4.804391   -2.099375   -1.674535
 H   -6.056455   -1.988359    1.114308
 H   -6.187692   -0.738557   -0.125561
 H   -4.585526   -0.254876    1.749457
 H   -3.595644   -2.368194    2.187308
 H   -2.291036   -1.356863    1.587485
 H   -2.433872   -2.459102   -0.642378
 H   -2.234873   -3.678040    0.615617
 H   -3.745170    1.746658    2.050469
 H   -3.009086    3.073560    1.176780
 H   -1.671586    1.914503   -1.287133
 H   -0.897865    2.568519    0.154026
 H    6.943040   -1.351939   -1.657569
 H    5.514729   -3.277063   -1.622429
 H    4.940641   -2.885031    0.003512
 H   -0.633120    3.091984   -3.432606
 H   -1.722907    5.304945   -3.310478
 H   -0.976559    6.974269   -1.626805
 H    0.885534    6.407348   -0.079949
 H    1.984375    4.196756   -0.215157
 H   -5.789252   -4.811868   -2.347814
 H   -5.622039   -5.925752   -0.968344
 H   -4.776244   -6.248771   -2.493508
 H   -2.159405   -0.732112    4.576384
 H   -3.386970    0.074673    3.606434
 H   -2.793903    0.839684    5.084818
 H   -0.849292    2.673255    2.306535
 H   -0.533313    1.123818    4.097761
 H   -0.998971    0.241676    2.656861
 H   -2.434138    4.259986    3.285792
 H   -1.570551    3.418212    4.584790
 H   -3.239257    2.972097    4.193007
 H   -3.399065   -4.173190   -2.157430
 H    2.030846   -0.598078   -1.139357
 H   -1.271253   -0.393247   -1.635357
 H   -2.730911   -6.251836   -1.344791
