83 
6oxu_ligand_xtb.xyz
 C   -2.258756    1.150803    0.760726
 C   -1.258450    2.009117    1.550467
 C    1.135542    1.554388    1.791481
 C    3.465914    1.282085    1.782304
 C    3.661199   -0.200392    2.118830
 C    5.193665    0.223468    0.428331
 C    4.174894    1.244017   -1.354583
 C   -1.648555    3.500586    1.509982
 C    2.071396   -3.331595   -0.682625
 C    0.907000   -4.045746   -0.941961
 C   -0.269020   -3.385819   -1.259947
 C   -0.273537   -2.006210   -1.320125
 C    0.876148   -1.279257   -1.077181
 C    2.046914   -1.942607   -0.761704
 C   -3.292704   -2.293719    0.208671
 C   -1.904512   -0.342456    0.857546
 C    4.707590    1.605724    0.933965
 C    4.435262    2.374763   -0.358643
 C   -1.577325    4.049831    0.114253
 C   -0.376792    4.530786   -0.395367
 C   -0.296128    4.988344   -1.699015
 C   -1.417161    4.971695   -2.510387
 C   -2.619635    4.502834   -2.009497
 C   -2.698237    4.045784   -0.706422
 C    4.441712   -3.779683   -1.353462
 C   -6.590327   -3.007940    2.134225
 C   -4.661308   -1.976655    0.830787
 C   -5.286981   -3.260297    1.384955
 C   -5.548367   -1.311978   -0.220986
 C    3.359247   -4.037396   -0.300573
 N   -2.595767   -1.085879   -0.175495
 N    0.069504    1.810808    1.015132
 O   -1.453655    0.238080   -1.966628
 O   -2.608482   -1.858085   -2.557200
 O   -3.548688    1.390508    1.273657
 O    1.117791    1.382198    2.984540
 O    2.273364    1.503206    1.039892
 O    4.392828   -0.764173    1.048152
 O    5.049783    0.194374   -0.955419
 O    3.784771   -3.663023    0.988640
 S   -1.791464   -1.119607   -1.641483
 H   -2.209589    1.438444   -0.298479
 H   -1.235132    1.676859    2.593169
 H    3.414431    1.882122    2.696497
 H    4.227217   -0.304299    3.052609
 H    2.715501   -0.735841    2.207883
 H    6.248134    0.007115    0.652909
 H    4.425691    1.494478   -2.385097
 H    3.130789    0.916163   -1.298781
 H   -2.662436    3.581795    1.899918
 H   -0.968563    4.046142    2.166881
 H    0.919157   -5.124492   -0.891773
 H   -1.176654   -3.926945   -1.475520
 H    0.835493   -0.204188   -1.160488
 H    2.947935   -1.383905   -0.570060
 H   -3.444427   -2.859550   -0.711263
 H   -2.684438   -2.892295    0.901301
 H   -0.820597   -0.472867    0.760962
 H   -2.208873   -0.714524    1.838530
 H    5.456920    2.089817    1.558467
 H    3.587976    3.048334   -0.270381
 H    5.323054    2.937392   -0.647137
 H    0.499521    4.556497    0.238449
 H    0.643683    5.359722   -2.082152
 H   -1.354403    5.326564   -3.528255
 H   -3.498276    4.492553   -2.637194
 H   -3.636567    3.682240   -0.314385
 H    4.688112   -2.720525   -1.391404
 H    5.339764   -4.335242   -1.094877
 H    4.096433   -4.097833   -2.333764
 H   -6.955066   -3.933042    2.574135
 H   -7.356327   -2.625841    1.465632
 H   -6.437045   -2.286146    2.933453
 H   -4.509054   -1.283244    1.665796
 H   -5.468077   -3.954326    0.561479
 H   -4.574923   -3.733841    2.065684
 H   -5.915753   -2.055542   -0.924588
 H   -4.971057   -0.583333   -0.787021
 H   -6.399316   -0.813154    0.235715
 H    3.167450   -5.114658   -0.230201
 H    0.200133    1.988559    0.030421
 H   -4.161288    0.828794    0.783767
 H    4.073897   -2.738275    0.966108
