83 
6oxu_ligand_dft.xyz
 C   -2.275975    1.011751    0.327750
 C   -1.725883    2.035630    1.327017
 C    0.600562    1.539844    1.958372
 C    2.901633    1.179890    2.302252
 C    2.996872   -0.339998    2.200264
 C    4.816112    0.422385    0.972213
 C    4.149006    1.924918   -0.613388
 C   -2.408572    3.411476    1.207969
 C    2.595728   -2.901430   -1.249817
 C    1.555939   -3.834967   -1.259113
 C    0.239195   -3.446522   -1.468800
 C   -0.040196   -2.097098   -1.670578
 C    0.978365   -1.146974   -1.671302
 C    2.290698   -1.554958   -1.463688
 C   -2.697241   -2.623394    0.440290
 C   -1.652541   -0.369557    0.543280
 C    4.262307    1.648549    1.749594
 C    4.224851    2.743733    0.674392
 C   -2.159028    4.091083   -0.117428
 C   -1.113603    5.006597   -0.267115
 C   -0.852814    5.598084   -1.501341
 C   -1.635902    5.278397   -2.605981
 C   -2.681456    4.368149   -2.468645
 C   -2.941772    3.782534   -1.234819
 C    5.094970   -2.616392   -1.721403
 C   -5.537647   -3.472835    2.972026
 C   -4.042538   -2.442374    1.155412
 C   -4.234974   -3.568189    2.179303
 C   -5.178848   -2.377394    0.132431
 C    4.015478   -3.367743   -0.944856
 N   -2.308314   -1.399465   -0.276133
 N   -0.288409    2.164740    1.154228
 O   -1.712462   -0.229358   -2.410386
 O   -2.495392   -2.639703   -2.453100
 O   -3.675375    0.947382    0.510558
 O    0.340081    0.913378    2.967510
 O    1.860461    1.704834    1.477016
 O    3.832713   -0.592935    1.082629
 O    4.984743    0.796094   -0.355695
 O    4.256208   -3.330336    0.448741
 S   -1.729860   -1.567617   -1.840567
 H   -2.039529    1.346388   -0.690090
 H   -1.885852    1.658541    2.340972
 H    2.726208    1.502576    3.329767
 H    3.440434   -0.752092    3.117162
 H    2.034975   -0.821379    2.026422
 H    5.774935    0.033540    1.328462
 H    4.548939    2.430786   -1.493605
 H    3.120183    1.601105   -0.815034
 H   -3.480171    3.261378    1.361794
 H   -2.037668    4.038753    2.025599
 H    1.783035   -4.885469   -1.099135
 H   -0.559834   -4.179873   -1.499925
 H    0.740563   -0.104190   -1.854710
 H    3.081636   -0.813337   -1.456129
 H   -2.788786   -3.432977   -0.287769
 H   -1.906962   -2.897533    1.153579
 H   -0.572288   -0.346316    0.354313
 H   -1.787204   -0.658225    1.589401
 H    4.914860    1.914019    2.583867
 H    3.385372    3.429836    0.793387
 H    5.157306    3.315183    0.696743
 H   -0.506066    5.266901    0.597299
 H   -0.042095    6.314906   -1.596424
 H   -1.436193    5.738688   -3.568947
 H   -3.296019    4.111474   -3.326286
 H   -3.752891    3.067016   -1.127608
 H    5.139963   -1.560991   -1.431461
 H    6.067641   -3.066465   -1.503700
 H    4.917431   -2.669482   -2.801083
 H   -5.577189   -4.241940    3.749672
 H   -6.412789   -3.607712    2.328544
 H   -5.628452   -2.495681    3.460526
 H   -4.010724   -1.487376    1.699482
 H   -4.193377   -4.536183    1.659483
 H   -3.388706   -3.556758    2.878962
 H   -5.359466   -3.366268   -0.306600
 H   -4.928271   -1.704641   -0.694679
 H   -6.111322   -2.027685    0.584746
 H    4.075935   -4.429116   -1.211184
 H    0.058734    2.630952    0.327506
 H   -3.984730    0.248548   -0.083981
 H    4.189075   -2.397970    0.719134
