86 
6oxv_ligand_dft.xyz
 C    4.527472   -3.031616   -0.033598
 C    1.454008   -0.410920   -0.534427
 C   -0.228762    1.787545   -1.987362
 C   -2.724357    0.144816   -1.728797
 C   -3.817057    2.242156   -1.431782
 C   -3.689372    2.507260    0.076740
 C   -3.347057   -1.818709    1.183809
 C   -2.512524   -2.814138    0.665345
 C   -1.142555   -2.769254    0.870330
 C   -0.591142   -1.696599    1.572599
 C   -1.398703   -0.684031    2.078229
 C   -2.777216   -0.760920    1.889823
 C    2.050517   -2.830414   -0.434439
 C    3.433369   -2.873352   -1.098750
 C    3.473726   -3.947144   -2.199442
 C    2.385259    0.790650   -0.325018
 C    2.154571    1.869933   -1.392528
 C   -2.572924    1.631607   -2.072266
 C   -4.844702    1.094993   -1.496548
 C   -5.058802    2.083296    0.592669
 C    3.152544    3.038001   -1.286360
 C    3.029274    3.816784    0.002418
 C    3.677194    3.382206    1.163406
 C    3.519387    4.065963    2.363835
 C    2.712611    5.200245    2.423113
 C    2.067370    5.646463    1.274198
 C    2.225935    4.958457    0.073077
 C   -4.849857   -1.922339    0.976332
 C   -5.460640   -2.925026    1.948975
 C    3.249007   -5.383666   -1.723813
 C    5.940983   -2.797549   -0.561674
 N    1.842411   -1.565051    0.286276
 N    0.789793    2.365819   -1.308084
 O    1.461101   -0.333538    2.436022
 O    1.621986   -2.861384    2.423759
 O    3.736913    0.390055   -0.414256
 O   -0.125142    0.975202   -2.885952
 O   -1.416662    2.238860   -1.511712
 O   -4.127981   -0.085612   -1.807685
 O   -5.460668    1.003269   -0.240265
 O   -5.153549   -2.360546   -0.327515
 S    1.175827   -1.619220    1.816984
 H    4.323331   -2.329753    0.785507
 H    4.454996   -4.025501    0.425342
 H    0.413244   -0.130721   -0.330334
 H    1.496727   -0.726254   -1.579982
 H   -2.339839   -0.055699   -0.719920
 H   -2.230629   -0.515001   -2.440125
 H   -4.167719    3.131104   -1.961206
 H   -3.447122    3.547649    0.301871
 H   -2.909197    1.876352    0.513228
 H   -2.958162   -3.623204    0.095432
 H   -0.507245   -3.564986    0.494648
 H   -0.945293    0.144013    2.612574
 H   -3.418110    0.019125    2.294206
 H    1.257786   -2.956184   -1.187152
 H    1.966798   -3.644320    0.288771
 H    3.591202   -1.904881   -1.593363
 H    2.714536   -3.695483   -2.951805
 H    4.437903   -3.885389   -2.717038
 H    2.182733    1.219928    0.665111
 H    2.265560    1.413204   -2.380183
 H   -2.568066    1.768663   -3.156998
 H   -5.619865    1.196400   -2.261158
 H   -5.790772    2.899663    0.519141
 H   -5.048289    1.725262    1.625969
 H    4.158130    2.621465   -1.383756
 H    2.979407    3.700126   -2.141290
 H    4.297553    2.490904    1.116886
 H    4.025179    3.710153    3.256400
 H    2.589771    5.733405    3.361118
 H    1.443395    6.535053    1.309126
 H    1.727976    5.316252   -0.825590
 H   -5.290446   -0.932312    1.155308
 H   -5.272500   -2.629086    2.985793
 H   -5.029628   -3.918618    1.787981
 H   -6.539924   -2.984896    1.783469
 H    2.276166   -5.504095   -1.234049
 H    4.019319   -5.701949   -1.014045
 H    3.275921   -6.076886   -2.570426
 H    6.675850   -2.852084    0.247668
 H    6.024347   -1.808096   -1.026314
 H    6.222814   -3.544174   -1.311790
 H    0.547668    2.946105   -0.516203
 H    3.839935   -0.330434    0.224424
 H   -4.877430   -1.651318   -0.934058
