86 
6oxv_ligand_ani.xyz
 C    4.431151   -3.093432   -0.188321
 C    1.383701   -0.487462   -0.530367
 C   -0.150462    1.801773   -2.074790
 C   -2.559724    0.047394   -1.710164
 C   -3.789312    2.111876   -1.737841
 C   -3.818962    2.600339   -0.285377
 C   -3.389216   -1.518939    1.363298
 C   -2.680916   -2.635967    0.909813
 C   -1.305243   -2.717202    1.066114
 C   -0.620811   -1.658687    1.657844
 C   -1.305739   -0.534806    2.114676
 C   -2.685999   -0.474079    1.972903
 C    1.926359   -2.914699   -0.492207
 C    3.286070   -2.918871   -1.202561
 C    3.322988   -3.961033   -2.333208
 C    2.317168    0.704400   -0.254343
 C    2.166468    1.792755   -1.328131
 C   -2.476429    1.497864   -2.200540
 C   -4.756246    0.914039   -1.708393
 C   -5.239874    2.236027    0.142923
 C    3.238781    2.885273   -1.223382
 C    3.202550    3.648831    0.078507
 C    3.922558    3.201812    1.191329
 C    3.876563    3.900381    2.393705
 C    3.103148    5.052829    2.505192
 C    2.375990    5.502435    1.407013
 C    2.424773    4.802949    0.203947
 C   -4.907526   -1.485215    1.260591
 C   -5.561620   -2.225176    2.420171
 C    2.959416   -5.385158   -1.908877
 C    5.770713   -2.564037   -0.694061
 N    1.723976   -1.672689    0.260254
 N    0.837192    2.376945   -1.329398
 O    1.576385   -0.529136    2.502680
 O    1.492790   -3.050831    2.357309
 O    3.673855    0.282196   -0.264307
 O    0.017981    1.016410   -2.986838
 O   -1.362861    2.207945   -1.631005
 O   -3.951602   -0.257589   -1.595692
 O   -5.586016    1.055192   -0.587740
 O   -5.347242   -2.081130    0.058514
 S    1.146161   -1.742532    1.825243
 H    4.163737   -2.583018    0.747951
 H    4.525430   -4.155405    0.079262
 H    0.338556   -0.196634   -0.359412
 H    1.471007   -0.766152   -1.584930
 H   -2.078638   -0.077431   -0.731113
 H   -2.098717   -0.644231   -2.421538
 H   -4.136833    2.892323   -2.423711
 H   -3.607539    3.666475   -0.184274
 H   -3.094837    2.047762    0.325158
 H   -3.226428   -3.439807    0.421143
 H   -0.767358   -3.603178    0.738568
 H   -0.749261    0.274286    2.576758
 H   -3.223290    0.398802    2.340808
 H    1.116967   -3.013954   -1.232126
 H    1.848409   -3.753554    0.204600
 H    3.409981   -1.923015   -1.653285
 H    2.633463   -3.644438   -3.127184
 H    4.324626   -3.961671   -2.782039
 H    2.064604    1.115679    0.732448
 H    2.277628    1.304988   -2.302278
 H   -2.395894    1.526597   -3.291667
 H   -5.384243    0.790257   -2.601523
 H   -5.955846    3.036821   -0.089763
 H   -5.327651    2.000020    1.208537
 H    4.220269    2.419583   -1.357960
 H    3.076516    3.574113   -2.060298
 H    4.500556    2.282624    1.111424
 H    4.445553    3.542783    3.247550
 H    3.066951    5.597512    3.444927
 H    1.767237    6.399339    1.485198
 H    1.851256    5.154901   -0.652961
 H   -5.222494   -0.429847    1.280673
 H   -5.293026   -1.766249    3.377966
 H   -5.231521   -3.269524    2.427185
 H   -6.649362   -2.202810    2.308892
 H    1.925275   -5.447793   -1.553042
 H    3.609702   -5.753811   -1.107340
 H    3.057268   -6.076079   -2.752608
 H    6.557783   -2.707388    0.052726
 H    5.703820   -1.492591   -0.912009
 H    6.091245   -3.070787   -1.611714
 H    0.533862    2.903768   -0.521961
 H    3.746638   -0.386723    0.431076
 H   -5.020404   -1.513562   -0.664124
