98 
6oxw_ligand_dft.xyz
 C    0.053108   -1.198439    3.404813
 C   -1.060145    1.180289   -0.143871
 C    3.299187    0.114557   -0.000556
 C    4.151681   -2.703710    0.745013
 C    6.009449   -2.265516   -0.688304
 C    5.578855   -2.597011   -2.125237
 C   -7.320514    0.514148   -0.372621
 C   -6.321619    1.030815    0.674956
 C   -5.010415    0.237874    0.672383
 C   -4.383116    0.265319   -0.722870
 C   -5.343029   -0.241024   -1.804391
 C   -6.661553    0.540271   -1.761558
 C   -1.627401   -0.479208    1.668506
 C   -0.231385   -1.081431    1.897416
 C   -0.026812   -2.408439    1.150012
 C    0.230896    0.789392   -0.901058
 C    1.437996    1.613833   -0.441562
 C    4.957811   -1.539702    0.157350
 C    6.086596   -3.656076    0.005736
 C    5.997372   -4.060621   -2.253937
 C    1.391234    3.068839   -0.910111
 C    2.606119    3.906743   -0.499942
 C    2.844606    3.912995    1.017043
 C    4.034632    4.796183    1.404755
 C    3.881453    6.221406    0.869073
 C    3.662801    6.215379   -0.645932
 C    2.464906    5.341655   -1.026044
 C   -8.566791   -0.955556    1.323708
 C   -0.845803   -3.588018    1.673951
 C    0.481950    0.127658    4.034602
 C   -7.907259   -0.876187   -0.050929
 N   -1.852118    0.041959    0.316140
 N    2.666334    0.954817   -0.858525
 O   -2.282446   -0.535455   -2.089945
 O   -3.157746   -2.036215   -0.246272
 O    0.114322    0.928041   -2.297148
 O    3.108903    0.055663    1.202462
 O    4.201342   -0.647694   -0.656427
 O    5.146659   -3.666171    1.040218
 O    5.768073   -4.618356   -0.973745
 O   -8.820162   -1.271239   -1.066140
 S   -2.857767   -0.704667   -0.752715
 H   -0.826012   -1.600924    3.926738
 H    0.855965   -1.931245    3.551434
 H   -1.662189    1.826378   -0.791976
 H   -0.822642    1.761315    0.754651
 H    3.425968   -3.077722    0.006918
 H    3.633191   -2.448701    1.668111
 H    6.972992   -1.751364   -0.670726
 H    6.046441   -1.946169   -2.867535
 H    4.494886   -2.506310   -2.235915
 H   -8.174356    1.210150   -0.387088
 H   -6.758992    1.019106    1.678204
 H   -6.100084    2.083007    0.450480
 H   -4.314965    0.662224    1.404899
 H   -5.188920   -0.804246    0.961764
 H   -4.063081    1.287334   -0.965621
 H   -4.874558   -0.141473   -2.787433
 H   -5.527789   -1.309449   -1.645456
 H   -6.468274    1.584830   -2.041075
 H   -7.350646    0.126882   -2.502666
 H   -1.795310    0.351385    2.366982
 H   -2.395685   -1.228750    1.869794
 H    0.515719   -0.378218    1.509596
 H   -0.255929   -2.266186    0.086177
 H    1.041781   -2.653845    1.204260
 H    0.445209   -0.257882   -0.648755
 H    1.455891    1.580733    0.650134
 H    5.422790   -0.975167    0.969711
 H    7.056536   -3.892770    0.455996
 H    5.406201   -4.628400   -2.976177
 H    7.060208   -4.147426   -2.529760
 H    1.277887    3.088491   -2.000053
 H    0.480158    3.528620   -0.499330
 H    3.495054    3.461945   -0.970958
 H    1.936240    4.283747    1.517958
 H    3.017377    2.894359    1.382927
 H    4.953387    4.354714    0.993139
 H    4.153685    4.807848    2.494343
 H    3.019001    6.699735    1.355223
 H    4.762358    6.821646    1.125617
 H    3.517668    7.236914   -1.016454
 H    4.564630    5.825331   -1.138778
 H    1.548856    5.785555   -0.606979
 H    2.334817    5.326331   -2.115597
 H   -9.076408   -1.917410    1.425409
 H   -9.307685   -0.154863    1.451367
 H   -7.836217   -0.871060    2.133948
 H   -1.918716   -3.417037    1.547633
 H   -0.596794   -4.497575    1.118507
 H   -0.643318   -3.782094    2.733027
 H   -0.286530    0.902554    3.924744
 H    1.398604    0.492820    3.558630
 H    0.676192    0.011679    5.105760
 H   -7.118021   -1.633446   -0.098219
 H    2.781299    0.775108   -1.846649
 H   -0.621044    0.352295   -2.565188
 H   -9.562486   -0.653171   -1.041951
