87 
6oy1_ligand_xtb.xyz
 C    2.309199    1.296862   -0.335214
 C    1.656942    2.360216   -1.238256
 C   -0.613447    1.676236   -1.835446
 C   -2.862058    1.107961   -2.155703
 C   -3.014839   -0.357414   -1.715819
 C   -5.158048    0.389307   -2.053407
 C   -5.922638    1.587931   -0.229358
 C    2.245387    3.757328   -0.977195
 C   -2.248697   -2.943332    1.513996
 C   -1.191760   -3.759558    1.125507
 C    0.109484   -3.287748    1.150167
 C    0.350596   -1.988981    1.554054
 C   -0.686839   -1.155830    1.924410
 C   -1.984934   -1.636372    1.912602
 C    2.927272   -2.271116   -0.710238
 C    1.734372   -0.101088   -0.631329
 C   -4.277348    1.658854   -1.953319
 C   -4.549492    2.179920   -0.537930
 C    1.923449    4.254005    0.403401
 C    2.766109    3.970525    1.471822
 C    2.447080    4.389563    2.750867
 C    1.282251    5.102984    2.979383
 C    0.441876    5.401540    1.920950
 C    0.760622    4.978459    0.641592
 C   -4.551622   -2.783728    0.500943
 C    6.505043   -0.945388   -1.129853
 C    4.201020   -1.963092   -1.511512
 C    5.392279   -1.815145   -0.555580
 C    4.430931   -3.012859   -2.608059
 C   -3.664479   -3.487704    1.545378
 C    4.473754   -4.456894   -2.119125
 N    2.507329   -1.114557    0.054826
 N    0.222497    2.384733   -1.061625
 O    2.886410   -2.404847    2.160693
 O    2.018840   -0.103390    2.286154
 O    3.692527    1.320272   -0.584527
 O   -0.304359    1.017294   -2.796595
 O   -1.899876    1.813436   -1.396223
 O   -4.315691   -0.722466   -2.140368
 O   -5.954241    0.329976   -0.887074
 O   -4.754976   -1.457989    0.931331
 O   -4.237581   -3.362781    2.822140
 S    2.034393   -1.380711    1.633316
 H    2.112673    1.532336    0.720572
 H    1.846466    2.079578   -2.279698
 H   -2.578236    1.143414   -3.214443
 H   -2.302986   -1.025648   -2.199213
 H   -2.910849   -0.432686   -0.624775
 H   -5.816905    0.363246   -2.932316
 H   -6.723963    2.223863   -0.628402
 H   -6.097129    1.409255    0.831603
 H    3.324154    3.678894   -1.106680
 H    1.844894    4.443860   -1.725149
 H   -1.386954   -4.777410    0.822236
 H    0.939314   -3.925114    0.890022
 H   -0.454983   -0.152624    2.247450
 H   -2.798740   -0.996525    2.216255
 H    2.121996   -2.602347   -1.379240
 H    3.138759   -3.052894    0.019032
 H    0.685096   -0.144325   -0.314482
 H    1.775815   -0.285906   -1.706624
 H   -4.542564    2.396338   -2.709391
 H   -3.802693    1.789620    0.152070
 H   -4.544094    3.265065   -0.486723
 H    3.677757    3.420554    1.294149
 H    3.109006    4.158974    3.571902
 H    1.033434    5.431540    3.977540
 H   -0.462989    5.967482    2.090362
 H    0.108165    5.230557   -0.183884
 H   -4.069957   -2.814906   -0.483737
 H   -5.512090   -3.314254    0.441621
 H    6.911686   -1.384573   -2.037998
 H    6.132656    0.048836   -1.367410
 H    7.315116   -0.846194   -0.411204
 H    4.050951   -1.000426   -2.013551
 H    5.790552   -2.799767   -0.308669
 H    5.033267   -1.377832    0.379514
 H    5.370650   -2.781629   -3.112620
 H    3.633130   -2.919463   -3.349310
 H   -3.640429   -4.560302    1.324363
 H    3.518285   -4.756407   -1.697141
 H    4.698835   -5.119442   -2.952106
 H    5.241153   -4.595743   -1.362905
 H   -0.139341    2.845802   -0.239934
 H    4.068681    0.557805   -0.124824
 H   -5.242571   -0.977461    0.240231
 H   -4.551267   -2.451675    2.897404
