87 
6oy1_ligand_dft.xyz
 C    2.238537    1.268465   -0.143176
 C    1.666420    2.286862   -1.136918
 C   -0.594209    1.614563   -1.840464
 C   -2.835693    1.071959   -2.257144
 C   -2.921459   -0.404521   -1.859697
 C   -5.099178    0.296668   -2.195759
 C   -5.933204    1.379000   -0.306742
 C    2.267219    3.694423   -0.958831
 C   -2.204997   -2.888243    1.770201
 C   -1.197579   -3.729376    1.293475
 C    0.135169   -3.338794    1.324212
 C    0.456982   -2.081719    1.829708
 C   -0.531389   -1.225150    2.306705
 C   -1.857899   -1.638235    2.283536
 C    2.872542   -2.292468   -0.683155
 C    1.674504   -0.135668   -0.406775
 C   -4.251478    1.569223   -1.974460
 C   -4.531712    1.938495   -0.510289
 C    1.886130    4.348980    0.347680
 C    2.593410    4.069475    1.521838
 C    2.203803    4.627607    2.734532
 C    1.102222    5.478669    2.793767
 C    0.394844    5.770860    1.632084
 C    0.786226    5.208760    0.418896
 C   -4.354794   -2.756753    0.463093
 C    6.471004   -1.065913   -1.481701
 C    4.040892   -1.873381   -1.587663
 C    5.345481   -1.822953   -0.780244
 C    4.108153   -2.764732   -2.838914
 C   -3.659908   -3.327789    1.704570
 C    4.344109   -4.252668   -2.572054
 N    2.490920   -1.189278    0.210564
 N    0.216969    2.341116   -1.040397
 O    3.006239   -2.656429    2.181749
 O    2.213591   -0.272895    2.520670
 O    3.640454    1.280286   -0.305889
 O   -0.240731    0.877027   -2.741209
 O   -1.893457    1.816884   -1.498880
 O   -4.225142   -0.793116   -2.285350
 O   -5.956232    0.168549   -1.065915
 O   -4.578759   -1.389199    0.738242
 O   -4.389402   -2.950229    2.847687
 S    2.153609   -1.540736    1.809088
 H    1.971380    1.566343    0.879326
 H    1.902739    1.941122   -2.147642
 H   -2.592779    1.155223   -3.319146
 H   -2.195290   -1.028438   -2.380168
 H   -2.805925   -0.527234   -0.774247
 H   -5.721530    0.292308   -3.094547
 H   -6.705972    2.063002   -0.682136
 H   -6.162298    1.122654    0.729851
 H    3.352930    3.596157   -1.034929
 H    1.927046    4.311602   -1.797403
 H   -1.455552   -4.713302    0.909336
 H    0.916891   -4.011456    0.986037
 H   -0.250665   -0.257403    2.708409
 H   -2.632044   -0.988249    2.674778
 H    2.001584   -2.596731   -1.283198
 H    3.170582   -3.140998   -0.063710
 H    0.631199   -0.198001   -0.071629
 H    1.670641   -0.328457   -1.481878
 H   -4.551068    2.375954   -2.647623
 H   -3.831235    1.431560    0.159794
 H   -4.463765    3.012330   -0.325895
 H    3.449559    3.401279    1.476005
 H    2.761133    4.395842    3.637215
 H    0.800710    5.915767    3.740961
 H   -0.458285    6.442455    1.666440
 H    0.238743    5.448570   -0.490420
 H   -3.736084   -2.896660   -0.433331
 H   -5.308125   -3.282691    0.315069
 H    6.746769   -1.537282   -2.431316
 H    6.168507   -0.033799   -1.692905
 H    7.369805   -1.032666   -0.857618
 H    3.835615   -0.851374   -1.935259
 H    5.669850   -2.842553   -0.536776
 H    5.138884   -1.349781    0.187961
 H    4.895548   -2.388678   -3.502503
 H    3.167496   -2.644978   -3.392665
 H   -3.686570   -4.422247    1.642324
 H    3.561892   -4.681102   -1.935098
 H    4.346217   -4.814345   -3.511548
 H    5.306383   -4.429722   -2.081146
 H   -0.201764    2.879154   -0.294442
 H    3.971410    0.543204    0.228613
 H   -5.137569   -1.012692    0.031966
 H   -4.787322   -2.095683    2.617811
