87 
6oy2_ligand_ani.xyz
 C   -5.531907   -0.503878    0.602610
 C   -1.886884   -0.097305    0.096248
 C    0.725626    1.759848    0.765358
 C    2.546236   -0.529927    1.379486
 C    4.263348    1.144651    1.563459
 C    4.859266    1.337348    0.166165
 C    1.956567   -3.391019   -0.868684
 C    0.933927   -4.121513   -0.254294
 C   -0.399919   -3.790792   -0.444150
 C   -0.726759   -2.702569   -1.247461
 C    0.273250   -1.969546   -1.880024
 C    1.607212   -2.301070   -1.674018
 C   -3.393009   -1.842784    1.049908
 C   -4.512011   -0.976483    1.654888
 C   -5.142235   -1.732388    2.836211
 C   -1.912724    0.963061   -1.022424
 C   -1.289712    2.281939   -0.522996
 C    2.752570    0.965808    1.632986
 C    4.806965   -0.234439    1.988954
 C    6.159259    0.547556    0.260079
 C   -1.633152    3.465659   -1.436136
 C   -0.960966    4.750559   -1.004005
 C   -1.302764    5.357077    0.207948
 C   -0.671752    6.525927    0.621439
 C    0.319433    7.102446   -0.168335
 C    0.673278    6.506149   -1.374128
 C    0.036192    5.337904   -1.785918
 C    4.442498   -3.075274   -1.421741
 C   -6.099175   -0.894157    3.681887
 C   -6.215104   -1.623040   -0.184631
 C    3.393981   -3.842249   -0.624452
 N   -2.763743   -1.248177   -0.131411
 N    0.148628    2.139554   -0.403068
 O   -3.232781   -3.433165   -1.333104
 O   -2.524103   -1.388456   -2.634617
 O   -3.222594    1.211424   -1.485450
 O    0.134419    1.440002    1.778753
 O    2.077643    1.748882    0.637095
 O    3.756956   -1.176879    1.796696
 O    5.882900   -0.549248    1.143370
 O    3.734181   -3.861018    0.749080
 O    4.530239   -1.720854   -1.024074
 S   -2.424746   -2.229771   -1.445383
 H   -5.022024    0.167149   -0.100294
 H   -6.295184    0.102457    1.106295
 H   -0.849128   -0.421473    0.257738
 H   -2.215843    0.366688    1.029037
 H    2.381233   -0.732167    0.314340
 H    1.710629   -0.931179    1.961181
 H    4.605090    1.931801    2.245078
 H    4.217299    0.892807   -0.599455
 H    5.018694    2.387783   -0.088225
 H    1.203527   -4.961173    0.381917
 H   -1.187632   -4.383066    0.013148
 H    0.009666   -1.157460   -2.550486
 H    2.379463   -1.679875   -2.119341
 H   -3.784267   -2.818673    0.753564
 H   -2.623153   -2.021435    1.816026
 H   -4.043307   -0.071908    2.078348
 H   -4.327811   -2.098462    3.475264
 H   -5.660501   -2.627371    2.464564
 H   -1.287763    0.607900   -1.853465
 H   -1.679323    2.476214    0.484398
 H    2.373008    1.236019    2.620869
 H    5.132899   -0.319361    3.033774
 H    6.982347    1.148317    0.672998
 H    6.485194    0.114318   -0.690829
 H   -2.720997    3.584998   -1.454762
 H   -1.329275    3.222179   -2.463093
 H   -2.072241    4.908079    0.835113
 H   -0.952834    6.986355    1.565540
 H    0.813831    8.014562    0.156430
 H    1.447157    6.949031   -1.996446
 H    0.316677    4.876060   -2.731745
 H    4.166762   -3.090595   -2.481933
 H    5.412374   -3.581864   -1.316722
 H   -5.600185    0.000656    4.072074
 H   -6.470802   -1.466789    4.537950
 H   -6.970760   -0.563929    3.106475
 H   -5.493752   -2.198770   -0.776805
 H   -6.949161   -1.206408   -0.881759
 H   -6.746126   -2.322669    0.471588
 H    3.463564   -4.894128   -0.936444
 H    0.757997    2.545874   -1.096936
 H   -3.441894    0.464554   -2.063565
 H    3.610220   -2.969598    1.125472
 H    4.813977   -1.699237   -0.096763
