42 
6p3t_ligand_ani.xyz
 O   16.785537  -11.898762   35.898494
 S   17.290462  -11.111922   37.010877
 C   17.704873  -12.248562   38.318757
 C   17.707031  -11.797764   39.631358
 C   18.062772  -12.681052   40.643800
 C   18.395282  -14.005034   40.339865
 N   18.746284  -14.846907   41.399482
 C   18.800116  -14.519952   42.731301
 C   18.429300  -13.070772   43.064207
 N   18.094105  -12.291167   41.984828
 O   18.431858  -12.645451   44.196988
 O   19.117364  -15.318708   43.583064
 C   18.363153  -14.451091   39.022786
 C   18.010674  -13.572971   38.007260
 N   18.754433  -10.407806   36.571463
 C   19.828036  -11.253121   36.168782
 C   19.635346  -12.235726   35.226983
 C   20.703892  -13.087816   34.841934
 C   20.514620  -14.118065   33.881241
 C   21.552535  -14.935572   33.516662
 C   22.833481  -14.763484   34.097235
 C   23.044262  -13.780391   35.027505
 C   21.984442  -12.919758   35.423650
 C   22.157377  -11.891188   36.385481
 C   21.114548  -11.080197   36.745606
 C   19.059503   -9.110537   37.170404
 O   16.494196  -10.042456   37.589194
 H   17.411701  -10.779215   39.865104
 H   18.993186  -15.808684   41.203578
 H   17.852953  -11.337752   42.225875
 H   18.609518  -15.485982   38.797514
 H   17.951427  -13.912055   36.977398
 H   18.660650  -12.368270   34.775267
 H   19.526071  -14.242673   33.442513
 H   21.400451  -15.720699   32.780605
 H   23.647253  -15.419235   33.797951
 H   24.025100  -13.643164   35.478054
 H   23.137829  -11.749093   36.835052
 H   21.271592  -10.304162   37.487762
 H   18.161445   -8.496337   37.131773
 H   19.397347   -9.197002   38.211341
 H   19.840995   -8.638445   36.572006
