21 
6p5o_ligand_dft.xyz
 O    4.604962    0.497249    0.264860
 C    3.569802    0.037126   -0.130016
 O    3.537949   -1.060484   -0.899505
 C    2.227951    0.719621    0.155876
 S    0.900282   -0.506745    0.411498
 C   -0.549266    0.480388    0.154332
 C   -0.528559    1.880732    0.123801
 C   -1.701440    2.589006   -0.090154
 C   -2.890910    1.889889   -0.262684
 N   -2.933445    0.563727   -0.209902
 C   -1.808607   -0.125293   -0.000819
 C   -2.008597   -1.617524    0.067301
 O   -1.109211   -2.387597    0.303665
 O   -3.260573   -2.007030   -0.149398
 H    2.622924   -1.313288   -1.105604
 H    1.998060    1.336252   -0.721124
 H    2.376457    1.367136    1.020855
 H    0.393568    2.427770    0.278674
 H   -1.691871    3.673151   -0.116561
 H   -3.831635    2.402457   -0.439595
 H   -3.785155   -1.192413   -0.294094
