43 
6p85_ligand_xtb.xyz
 C    0.336945   -1.627777   -0.047629
 C   -0.792229   -1.038076    0.520357
 C   -3.211512    0.828720   -0.057106
 C    2.526817    0.829961    0.617922
 C    3.795466   -0.658098   -0.785077
 C    4.477905    0.425055   -1.308048
 C    3.214348    1.908797    0.090450
 C    4.195237    1.718653   -0.877365
 C   -4.026226   -1.227994   -1.053486
 C   -4.505433    1.334973   -0.098711
 C   -2.239867    2.829074    0.837454
 C    4.953717    2.880519   -1.441241
 C   -5.306315   -0.703959   -1.098156
 C   -0.850823    3.283679    1.256603
 C   -5.539948    0.569386   -0.611878
 C   -2.989413   -0.479960   -0.522151
 C    2.830604   -0.443390    0.178753
 N   -0.966385   -0.571099    1.775239
 N   -1.689362   -1.011493   -0.498340
 N    0.064589   -1.900557   -1.338892
 N   -1.123832   -1.552742   -1.607363
 O    1.563742   -1.582092    2.198290
 O   -2.117917    1.495064    0.384641
 O    2.522248   -3.055196    0.466409
 S    1.873804   -1.820818    0.799335
 H    1.765292    0.959825    1.370818
 H    3.994752   -1.668905   -1.103067
 H    5.236699    0.270291   -2.060940
 H    2.987550    2.908563    0.432029
 H   -3.808640   -2.213445   -1.433616
 H   -4.710403    2.333185    0.254201
 H   -2.626889    3.466885    0.031490
 H   -2.931655    2.878302    1.689654
 H    5.955987    2.911560   -1.014069
 H    5.055567    2.785315   -2.520164
 H    4.456999    3.820227   -1.214228
 H   -6.114193   -1.287342   -1.509849
 H   -0.479190    2.644631    2.052880
 H   -0.170979    3.213855    0.411790
 H   -0.886306    4.311212    1.606680
 H   -6.536128    0.984265   -0.638227
 H   -0.222637   -0.862683    2.402247
 H   -1.901976   -0.511017    2.139622
