69 
6p86_ligand_ani.xyz
 C    1.885966    0.455208   -1.411476
 C   -0.239309    1.325119   -0.631182
 C   -0.073809    0.071799   -2.791606
 C   -0.359372    2.861463    1.232063
 C   -0.418179   -1.396664   -2.487381
 C   -1.740029    2.731508    1.258005
 C    2.302113    3.333229   -0.472511
 C    0.670200   -3.424386   -1.707130
 C    1.191353   -3.085196   -0.321099
 C    2.165049   -2.311560    2.220809
 C    2.553414   -2.835793   -0.118179
 C    0.325193   -2.915806    0.757337
 C    3.939226    0.985212   -0.024931
 C    3.031934   -2.473326    1.134488
 C    0.805089   -2.534388    2.006854
 C   -3.759152   -0.836045    0.267592
 C   -5.876421    0.354311    0.366453
 C    2.685418   -1.891354    3.577786
 C    3.818131    3.444807   -0.410299
 C   -4.845787   -1.774858    0.789556
 C   -6.132107   -1.148805    0.246092
 C    4.465566    2.141516   -0.872568
 C    3.179567   -0.441539    3.626230
 C    0.407267    2.122901    0.335084
 C    2.418409    0.925620   -0.056566
 C   -3.863635    1.689738    0.513786
 C   -1.623298    1.161911   -0.574283
 C   -2.374552    1.839997    0.385069
 N    0.552604    0.704263   -1.626648
 N   -4.420591    0.473034    0.244689
 N    0.651880   -2.243314   -2.560791
 N    1.826283    2.205352    0.346323
 O    2.581675   -0.144979   -2.225528
 O   -4.563204    2.627220    0.878046
 O   -1.541874   -1.760245   -2.171404
 H    0.631198    0.140432   -3.621601
 H   -0.974368    0.626297   -3.052992
 H    0.158804    3.531390    1.912503
 H   -2.341370    3.309428    1.951634
 H    1.831887    4.242054   -0.081830
 H    1.954219    3.208593   -1.511935
 H    1.295901   -4.183358   -2.190969
 H   -0.353613   -3.803260   -1.661976
 H    3.250692   -2.925813   -0.949914
 H   -0.743109   -3.068915    0.612324
 H    4.246713    1.127501    1.020654
 H    4.342455    0.024757   -0.365617
 H    4.099629   -2.306427    1.270188
 H    0.111228   -2.407699    2.836147
 H   -2.873540   -0.807215    0.908927
 H   -3.432630   -1.120462   -0.741000
 H   -6.365192    0.940964   -0.416285
 H   -6.198549    0.764008    1.330630
 H    1.895887   -2.034343    4.324573
 H    3.508110   -2.557285    3.871540
 H    4.106654    3.653748    0.627434
 H    4.151206    4.291559   -1.022276
 H   -4.848875   -1.766719    1.885934
 H   -4.693604   -2.806118    0.460101
 H   -6.271090   -1.420195   -0.807594
 H   -7.026256   -1.464310    0.791108
 H    5.556190    2.202182   -0.799132
 H    4.217361    1.951517   -1.924372
 H    3.989492   -0.278227    2.904369
 H    3.564343   -0.191990    4.621103
 H    2.373637    0.263987    3.391832
 H    2.080182    0.168812    0.666940
 H   -2.104770    0.474301   -1.260789
 H    1.547708   -1.778233   -2.681539
