69 
6p86_ligand_dft.xyz
 C    2.111723   -0.235702   -1.486681
 C    0.084688    0.946236   -0.845768
 C    0.113623   -0.610728   -2.812548
 C    0.142288    2.692769    0.819797
 C   -0.505570   -1.894081   -2.243093
 C   -1.243830    2.740728    0.829245
 C    2.813949    2.758918   -0.953048
 C    0.173294   -3.692083   -0.734600
 C    0.548484   -2.947557    0.532671
 C    1.313322   -1.347332    2.732023
 C    1.765009   -3.162209    1.180064
 C   -0.284042   -1.930241    1.005185
 C    4.235538    0.327789   -0.217718
 C    2.136007   -2.378518    2.270148
 C    0.095957   -1.136436    2.079844
 C   -3.772696   -0.516865    0.353451
 C   -5.671177    0.959955   -0.011766
 C    1.760410   -0.447613    3.860339
 C    4.335425    2.741904   -0.874432
 C   -5.050567   -1.171963    0.885183
 C   -6.150753   -0.489849    0.065621
 C    4.869519    1.340214   -1.170715
 C    2.796965    0.586675    3.402618
 C    0.816127    1.804148   -0.011640
 C    2.712442    0.402960   -0.240482
 C   -3.471791    1.979306    0.042162
 C   -1.308380    0.957010   -0.799158
 C   -1.972727    1.855584    0.035323
 N    0.801122    0.099916   -1.733591
 N   -4.211296    0.838609   -0.006791
 N    0.413367   -2.835747   -1.894814
 N    2.235081    1.767945   -0.032823
 O    2.713063   -1.043420   -2.187606
 O   -3.999211    3.085766    0.073894
 O   -1.707130   -1.998552   -2.036069
 H    0.857800   -0.833386   -3.579324
 H   -0.668628    0.021492   -3.231791
 H    0.732948    3.346330    1.454826
 H   -1.775929    3.454800    1.448236
 H    2.419440    3.738447   -0.668122
 H    2.495539    2.571263   -1.994921
 H    0.760071   -4.607935   -0.845850
 H   -0.884871   -3.960568   -0.741362
 H    2.433843   -3.944395    0.828248
 H   -1.229023   -1.746472    0.504671
 H    4.558722    0.537781    0.808270
 H    4.538468   -0.691822   -0.467057
 H    3.088520   -2.562175    2.762346
 H   -0.556569   -0.329075    2.405507
 H   -2.978551   -0.476504    1.104392
 H   -3.392522   -1.058017   -0.520310
 H   -6.006199    1.486441   -0.909149
 H   -5.998368    1.548481    0.854572
 H    0.890444    0.068926    4.280882
 H    2.186699   -1.054218    4.668601
 H    4.641739    3.050020    0.133160
 H    4.739879    3.473241   -1.582721
 H   -5.178545   -0.942755    1.949240
 H   -5.032659   -2.258521    0.769528
 H   -6.197113   -0.928765   -0.937311
 H   -7.141403   -0.575612    0.519025
 H    5.959951    1.314384   -1.072850
 H    4.633343    1.063152   -2.206242
 H    3.696407    0.089016    3.022563
 H    3.096988    1.232922    4.234185
 H    2.404157    1.219667    2.599165
 H    2.322789   -0.198555    0.592112
 H   -1.880060    0.273493   -1.415950
 H    1.381584   -2.564617   -2.044348
