47 
6p89_ligand_ani.xyz
 C   -8.969859   26.614222   12.477338
 C   -8.874854   28.054938   12.528752
 C  -15.478435   23.782277   16.644582
 C  -14.123441   24.019118   16.466434
 C   -7.769997   26.668780   10.306469
 C   -9.649973   28.910720   13.328327
 C  -16.412448   24.453489   15.842580
 C  -13.677959   24.915111   15.491744
 C   -7.703167   29.987532   11.662847
 C  -15.960996   25.336888   14.870444
 C   -9.441343   30.279647   13.332645
 C  -14.606564   25.579618   14.684037
 C   -8.450385   30.804965   12.493014
 C  -17.208866   22.461354   17.476713
 C  -18.112753   23.646216   17.211591
 C  -10.266908   31.172409   14.223935
 C   -8.447944   25.911904   11.409054
 C  -10.090816   25.862480   14.645576
 C   -8.741888   24.569301   11.692268
 C  -11.618270   25.981030   14.570875
 C   -7.929156   28.615893   11.660757
 N   -9.493555   25.694132   13.338275
 N  -12.285025   25.093903   15.366781
 N   -9.362619   24.439424   12.855413
 O   -7.156733   27.847139   10.837736
 O  -15.864654   22.903362   17.617370
 O  -17.757818   24.254452   15.976670
 O  -12.159163   26.823425   13.878478
 H  -13.426678   23.486547   17.108568
 H   -8.484723   26.955778    9.519064
 H   -6.954637   26.105543    9.845477
 H  -10.457829   28.487481   13.920262
 H   -6.940766   30.392136   11.003349
 H  -16.702890   25.841508   14.258278
 H  -14.270390   26.274536   13.926725
 H   -8.270192   31.878028   12.488538
 H  -17.465737   21.965691   18.415725
 H  -17.285337   21.741189   16.650294
 H  -18.022344   24.374373   18.029439
 H  -19.156125   23.338119   17.111760
 H  -10.823785   31.917256   13.643381
 H  -10.990329   30.581570   14.794563
 H   -9.639097   31.716716   14.939157
 H   -9.781628   25.001717   15.240537
 H   -9.685495   26.765834   15.109244
 H   -8.520682   23.690216   11.100981
 H  -11.721749   24.481034   15.936952
