25 
6pg3_ligand_xtb.xyz
 C  -24.286194  -16.972306  140.235679
 C  -28.548956  -11.065961  143.750932
 C  -27.379773  -11.056598  142.773700
 C  -27.169443  -12.426384  142.134784
 C  -25.994398  -12.424400  141.148554
 C  -25.806712  -13.766575  140.538396
 N  -26.599596  -14.243041  139.542269
 C  -26.171858  -15.513060  139.257314
 C  -25.129373  -15.748794  140.105385
 N  -24.916851  -14.654805  140.894021
 O  -24.731024  -17.947969  139.317690
 H  -24.355275  -17.343624  141.269505
 H  -23.235402  -16.704106  140.046349
 H  -28.685356  -10.082687  144.194829
 H  -29.470149  -11.343772  143.242803
 H  -28.371005  -11.782099  144.549935
 H  -26.469262  -10.761204  143.298926
 H  -27.565857  -10.316283  141.991593
 H  -28.082854  -12.726520  141.614490
 H  -26.972483  -13.166602  142.912166
 H  -25.077559  -12.159029  141.674460
 H  -26.175285  -11.683332  140.364830
 H  -27.358013  -13.759156  139.090912
 H  -26.618871  -16.126952  138.505627
 H  -24.182452  -18.732742  139.415848
