16 
6pg4_ligand_dft.xyz
 C   48.594999   -5.684453  101.709229
 C   49.945586   -5.050172  101.665330
 N   50.679695   -4.729758  102.706942
 N   50.579962   -4.725368  100.502864
 C   51.795637   -4.162319  100.831096
 C   51.831313   -4.177275  102.195101
 C   52.918136   -3.688291  103.095228
 O   53.965524   -3.178807  102.291985
 H   48.321018   -5.841396  102.753606
 H   47.832751   -5.049701  101.242964
 H   48.584836   -6.654409  101.198953
 H   50.225374   -4.870277   99.571334
 H   52.500800   -3.814297  100.094269
 H   52.512577   -2.915805  103.767150
 H   53.264062   -4.518742  103.730345
 H   54.661729   -2.865931  102.878602
