32 
6pg6_ligand_xtb.xyz
 C  135.026435  -24.880973   24.685337
 C  137.166513  -27.116144   26.862530
 O  137.721249  -31.827256   20.681000
 C  136.726240  -30.960124   20.176827
 C  136.680416  -29.719223   21.003977
 C  137.591747  -29.253726   21.909530
 N  137.079532  -28.078938   22.383552
 C  135.895297  -27.880854   21.753597
 C  135.040135  -26.703432   22.059261
 C  134.265403  -26.919799   23.368596
 C  133.845679  -25.608340   24.032567
 N  135.618868  -25.649761   25.757188
 C  136.784672  -26.317790   25.635361
 O  137.469476  -26.275691   24.630156
 N  135.628246  -28.853185   20.918780
 H  135.819652  -24.705211   23.956864
 H  134.695121  -23.917091   25.083950
 H  138.172869  -27.505422   26.739637
 H  137.125584  -26.492823   27.752502
 H  136.478765  -27.950669   26.986955
 H  137.741266  -32.619188   20.134262
 H  136.942197  -30.691304   19.130058
 H  135.735321  -31.436880   20.201999
 H  138.524110  -29.660553   22.237043
 H  137.483160  -27.472825   23.087099
 H  135.688384  -25.830503   22.153001
 H  134.347253  -26.538289   21.235308
 H  133.383389  -27.526145   23.159756
 H  134.889225  -27.484573   24.064855
 H  133.394715  -24.946620   23.291905
 H  133.094540  -25.814940   24.799392
 H  135.065543  -25.781729   26.589154
