39 
6pg9_ligand_ani.xyz
 C   18.362242  -87.842006   29.354849
 C   21.209729  -88.051658   31.870921
 C   22.224174  -89.871694   33.091702
 C   22.720564  -87.591386   33.699506
 O   25.984839  -86.083724   25.446493
 C   25.046762  -85.646798   26.409516
 C   23.756454  -86.362224   26.175393
 C   23.467336  -87.286233   25.213329
 N   22.154241  -87.635035   25.432844
 C   21.712418  -86.906496   26.504229
 C   20.320159  -87.004815   27.037095
 C   19.874288  -88.439210   27.351327
 C   18.486968  -88.531514   27.992219
 N   19.342352  -88.295893   30.325605
 C   20.325795  -87.480695   30.800484
 C   21.388936  -89.421733   32.074613
 C   22.884735  -88.958249   33.909936
 C   21.892876  -87.142128   32.677418
 O   20.480541  -86.333488   30.396351
 N   22.658557  -86.130027   26.975417
 H   18.505011  -86.763942   29.254435
 H   17.353993  -88.005394   29.753460
 H   22.352784  -90.940070   33.248542
 H   23.241637  -86.875775   34.330552
 H   26.811762  -85.615217   25.607637
 H   25.388958  -85.853090   27.435546
 H   24.871464  -84.561610   26.345047
 H   24.066720  -87.708660   24.419766
 H   21.615021  -88.290968   24.885115
 H   20.294150  -86.377501   27.934602
 H   19.627115  -86.556654   26.310323
 H   19.862743  -89.025205   26.422657
 H   20.615743  -88.910783   28.007280
 H   17.735092  -88.093837   27.319682
 H   18.216961  -89.590291   28.099835
 H   19.162337  -89.159982   30.810812
 H   20.907392  -90.152086   31.426402
 H   23.532593  -89.312030   34.707632
 H   21.758561  -86.081898   32.481430
