33 
6pga_ligand_dft.xyz
 C    2.115730   74.503232    6.452002
 O    3.301204   74.862401    5.738763
 C    4.333085   74.015957    5.878248
 N    5.403092   74.439361    5.164597
 C    6.582453   73.615117    4.966768
 C    6.566008   72.828953    3.647886
 C    5.356240   71.905957    3.485683
 C    5.356973   70.695743    4.438683
 C    3.990391   70.111318    4.592572
 N    3.089513   70.645533    5.460429
 C    1.907750   69.960673    5.303128
 C    0.695436   70.254132    6.106304
 O    0.299029   71.607275    5.891684
 C    2.171624   69.023967    4.338532
 N    3.469225   69.119468    3.900158
 O    4.304566   73.009521    6.574333
 H    1.412799   75.313943    6.260550
 H    1.707692   73.555818    6.088606
 H    2.322988   74.426610    7.522329
 H    5.254621   75.237040    4.564816
 H    6.641065   72.944542    5.826426
 H    7.463772   74.264022    5.001874
 H    7.497003   72.250002    3.586513
 H    6.589416   73.542479    2.813547
 H    4.440263   72.489092    3.639251
 H    5.306089   71.540488    2.454491
 H    6.029855   69.921006    4.060263
 H    5.717189   70.996507    5.428207
 H    3.271040   71.451973    6.053443
 H    0.894873   70.087879    7.176754
 H   -0.096616   69.555720    5.803140
 H   -0.431662   71.794587    6.492898
 H    1.494294   68.278684    3.942122
