42 
6pgb_ligand_ani.xyz
 C   23.324925   73.055641    4.472392
 N   22.469057   74.849859    5.968956
 C   21.399484   74.828322    6.805297
 C   21.263218   77.374669    6.528239
 C   21.837287   79.196359    5.036716
 C   22.117555   77.917364    7.490918
 O   16.215218   68.594637    3.994870
 C   17.024569   69.016286    5.073541
 C   18.206233   69.745911    4.522335
 C   18.590581   70.049597    3.249245
 N   19.767854   70.750151    3.244125
 C   20.113211   70.879011    4.506767
 N   19.195693   70.283306    5.326917
 C   21.355849   71.528525    5.030005
 C   21.932815   72.567132    4.069119
 C   23.387817   73.735546    5.842847
 C   20.529205   76.084720    6.804397
 C   21.129607   78.025506    5.301359
 C   22.685540   79.729897    6.002920
 C   22.823494   79.088375    7.231039
 O   21.105600   73.858834    7.492014
 H   24.023187   72.205961    4.479302
 H   23.700461   73.747491    3.705809
 H   22.679800   75.701363    5.469780
 H   21.725290   79.689257    4.074154
 H   22.229165   77.410250    8.447852
 H   15.454549   68.126158    4.358348
 H   17.367331   68.156737    5.673353
 H   16.465643   69.679527    5.754622
 H   18.080903   69.801456    2.326871
 H   19.225950   70.242463    6.335280
 H   22.104459   70.742233    5.211714
 H   21.134842   71.976482    6.008335
 H   21.244757   73.418244    4.002409
 H   21.979253   72.125392    3.067900
 H   23.130389   73.030646    6.636954
 H   24.409077   74.086000    6.032955
 H   19.739958   75.937703    6.055274
 H   20.033715   76.104042    7.779199
 H   20.465905   77.608175    4.545690
 H   23.238150   80.643807    5.799404
 H   23.484403   79.500968    7.989776
