46 
6pgc_ligand_ani.xyz
 O   24.103050    3.958772   -4.979044
 C   23.204222    4.663759   -5.811811
 C   21.911619    4.831746   -5.081882
 C   21.590440    4.401193   -3.827407
 N   20.290643    4.808234   -3.628881
 C   19.887760    5.454527   -4.766648
 C   18.518864    6.027815   -4.936946
 C   18.085912    6.951409   -3.791433
 C   16.696613    7.567496   -3.981873
 C   16.552768    8.526232   -5.165478
 N   17.451497    9.670421   -5.108188
 C   18.570266    9.644417   -5.883863
 O   19.414590   10.658828   -5.601905
 C   20.605414   10.661579   -6.387459
 O   18.804770    8.805618   -6.736271
 C   17.210713   10.710396   -4.116265
 C   15.781308   11.199841   -4.141663
 C   14.918547   10.997939   -3.063822
 C   13.600373   11.445071   -3.113171
 C   13.131024   12.099827   -4.247697
 C   13.984479   12.302721   -5.329497
 C   15.300074   11.852033   -5.278247
 N   20.845701    5.486505   -5.661396
 H   24.932152    3.857558   -5.460321
 H   23.593825    5.657071   -6.083507
 H   23.015811    4.127481   -6.754885
 H   22.159832    3.858559   -3.086510
 H   19.733888    4.632469   -2.803939
 H   18.530450    6.563294   -5.891568
 H   17.796078    5.204878   -5.033400
 H   18.071432    6.376756   -2.856231
 H   18.839923    7.735980   -3.651158
 H   16.402470    8.093792   -3.063266
 H   15.957716    6.764266   -4.111643
 H   15.524806    8.904191   -5.203111
 H   16.749418    8.015440   -6.111366
 H   21.184307   11.518649   -6.044381
 H   21.165179    9.735677   -6.236647
 H   20.365136   10.760803   -7.448279
 H   17.467067   10.337589   -3.115033
 H   17.891082   11.535769   -4.332324
 H   15.282813   10.485405   -2.174399
 H   12.940914   11.282711   -2.263744
 H   12.103289   12.451663   -4.290606
 H   13.623481   12.813113   -6.219445
 H   15.964286   12.006502   -6.127390
