28 
6pge_ligand_xtb.xyz
 C    4.514435   -3.215211  101.607172
 C    4.949848   -4.495542  101.783982
 C    2.831010   -4.623095  101.517137
 C   -0.013488   -7.170838  101.388354
 C   -1.997585   -9.054929   99.877412
 C    6.337251   -4.993204  102.012175
 C    1.434113   -5.119818  101.388772
 C    1.399758   -6.643218  101.342199
 C   -1.300517   -9.145211  101.227343
 N    3.157149   -3.306191  101.436328
 N    3.891766   -5.357262  101.725406
 O   -0.998233   -6.505979  101.579555
 O    7.231998   -3.902168  102.009961
 O   -0.028262   -8.495091  101.204217
 H    5.045790   -2.288641  101.589303
 H   -2.928938   -9.612923   99.909953
 H   -2.217123   -8.016345   99.642684
 H   -1.361828   -9.467780   99.097890
 H    6.370661   -5.528146  102.973793
 H    6.592105   -5.713866  101.220046
 H    0.974486   -4.707397  100.486069
 H    0.837421   -4.775116  102.239077
 H    1.952122   -7.046051  102.192683
 H    1.892313   -7.016819  100.444591
 H   -1.919796   -8.684370  102.003930
 H   -1.083208  -10.182477  101.489948
 H    2.526339   -2.536542  101.285517
 H    8.122412   -4.235773  102.159501
