59 
6pgo_ligand_ani.xyz
 C    5.814530   -3.367059   41.119712
 C    6.787261   -4.367397   40.485082
 C    8.183131   -3.790057   40.324135
 O    8.573551   -3.398179   39.233839
 N    8.963054   -3.695654   41.445741
 C   10.305444   -3.140713   41.326010
 C   10.502895   -2.070788   42.386445
 N   10.247180   -2.657368   43.710281
 C    8.874487   -3.149520   43.821545
 C    8.654816   -4.223997   42.765170
 C   10.740473   -1.967990   44.802851
 N    9.884306   -1.507787   45.693159
 N   10.304038   -0.698755   46.673629
 C   11.568789   -0.350243   46.770575
 C   11.864448    0.728971   47.731792
 C   11.140579    0.777914   48.925716
 C   11.385080    1.782292   49.854700
 C   12.325435    2.772320   49.581778
 C   13.018100    2.756541   48.374392
 C   12.789329    1.740128   47.452834
 C   12.607909   -1.013416   46.011143
 C   13.996119   -0.930447   46.263814
 C   14.938199   -1.555769   45.471842
 C   14.469042   -2.376740   44.422211
Cl   15.574877   -3.278611   43.430788
 C   13.124488   -2.523346   44.183049
 C   12.174926   -1.835971   44.963301
 C   16.384511   -1.365024   45.766282
 C   16.932462   -1.804467   46.977510
 O   16.083236   -2.419227   47.841008
 C   18.285676   -1.631801   47.264576
 C   19.105348   -0.993597   46.342597
 C   18.592122   -0.528431   45.138852
 C   17.245734   -0.721610   44.880233
 F   16.748853   -0.262301   43.720353
 H    4.815031   -3.804647   41.204741
 H    6.131408   -3.057744   42.121763
 H    5.737964   -2.462566   40.506976
 H    6.812906   -5.301279   41.056438
 H    6.454322   -4.616326   39.475524
 H   11.045682   -3.943604   41.458408
 H   10.405481   -2.737255   40.317644
 H   11.514794   -1.655240   42.343270
 H    9.806206   -1.236099   42.199838
 H    8.157836   -2.322300   43.698634
 H    8.727795   -3.561897   44.821966
 H    7.628622   -4.589956   42.802656
 H    9.322626   -5.069030   42.985693
 H   10.388292    0.015404   49.108474
 H   10.830588    1.799429   50.789852
 H   12.511213    3.560952   50.305853
 H   13.747064    3.530417   48.151758
 H   13.335322    1.729257   46.511224
 H   14.339498   -0.378008   47.133403
 H   12.798988   -3.204692   43.405721
 H   16.578375   -2.717954   48.613650
 H   18.692482   -1.991639   48.208425
 H   20.158865   -0.855849   46.567406
 H   19.206213   -0.023276   44.401737
