59 
6pgo_ligand_xtb.xyz
 C    7.774321    0.964860    0.504793
 C    7.673869   -0.369213   -0.235687
 C    6.480293   -1.172763    0.249250
 O    6.608408   -2.038739    1.094594
 N    5.266829   -0.900459   -0.294471
 C    4.102788   -1.622180    0.180769
 C    3.123901   -0.640569    0.825956
 N    2.768435    0.371587   -0.147849
 C    3.930049    1.124821   -0.567482
 C    4.920915    0.151643   -1.220497
 C    1.543077    0.969584   -0.193311
 N    1.520006    2.267684   -0.442689
 N    0.410582    2.957245   -0.364247
 C   -0.731716    2.404102   -0.042699
 C   -1.851614    3.318571    0.203109
 C   -2.010737    4.443344   -0.603062
 C   -3.049417    5.325105   -0.374120
 C   -3.935427    5.102041    0.667683
 C   -3.768738    3.999503    1.489079
 C   -2.733039    3.111793    1.262150
 C   -0.871465    0.977821   -0.002218
 C   -2.109187    0.316123   -0.001331
 C   -2.183902   -1.053617   -0.086894
 C   -0.995271   -1.788413   -0.255255
Cl   -1.083267   -3.497350   -0.511175
 C    0.228925   -1.171670   -0.282049
 C    0.319446    0.218674   -0.107818
 C   -3.490600   -1.739740   -0.044679
 C   -4.443051   -1.534086   -1.049238
 O   -4.127581   -0.683818   -2.057919
 C   -5.660591   -2.202725   -1.000100
 C   -5.945682   -3.068767    0.039780
 C   -5.024633   -3.276997    1.049886
 C   -3.815844   -2.609655    0.987660
 F   -2.925599   -2.790627    1.983584
 H    6.927008    1.610471    0.285511
 H    7.804723    0.788974    1.577412
 H    8.685269    1.484286    0.216032
 H    8.557189   -0.966569   -0.004039
 H    7.639701   -0.216833   -1.314902
 H    4.443287   -2.364203    0.904483
 H    3.625750   -2.127291   -0.666849
 H    3.626075   -0.160268    1.679914
 H    2.239798   -1.153249    1.198765
 H    4.402907    1.618657    0.292279
 H    3.610780    1.889254   -1.274620
 H    4.440300   -0.301084   -2.097226
 H    5.803143    0.694169   -1.549321
 H   -1.309146    4.607501   -1.405879
 H   -3.169206    6.191621   -1.007924
 H   -4.748173    5.790851    0.845836
 H   -4.445980    3.832715    2.314348
 H   -2.589296    2.270938    1.925868
 H   -3.019473    0.892829    0.045039
 H    1.109036   -1.755955   -0.493038
 H   -4.850691   -0.648277   -2.696008
 H   -6.385323   -2.042127   -1.786562
 H   -6.893855   -3.582539    0.063330
 H   -5.225466   -3.940767    1.874601
