47 
6pi1_ligand_xtb.xyz
 O    1.002780    2.311110    1.862866
 C    1.274633    1.991901    0.718361
 C    2.356920    1.033143    0.393350
 C    2.746311    0.129950    1.381352
 C    3.741939   -0.792672    1.162447
 C    4.418865   -0.847902   -0.067167
 N    5.397187   -1.776611   -0.299394
 C    5.882905   -2.601160    0.780008
 C    6.105914   -1.795214   -1.554328
 C    4.042558    0.083722   -1.048393
 C    3.033929    0.995206   -0.823031
 N    0.602744    2.500831   -0.349956
 C   -0.538949    3.367443   -0.193748
 C   -1.855480    2.668278   -0.543127
 C   -2.090450    1.441806    0.337392
 C   -3.489948    0.844925    0.189290
 C   -3.755653    0.280767   -1.205411
 C   -5.128437   -0.396901   -1.306800
 C   -5.150401   -1.665182   -0.488725
 O   -4.596713   -2.706522   -0.796165
 N   -5.866142   -1.596668    0.649497
 O   -5.868390   -2.715280    1.491642
 H    2.240044    0.169158    2.334140
 H    3.994327   -1.475097    1.956637
 H    5.096510   -3.268079    1.145197
 H    6.707191   -3.215401    0.425844
 H    6.243725   -1.995251    1.617631
 H    6.702838   -0.887502   -1.702495
 H    6.775639   -2.651754   -1.579194
 H    5.406522   -1.893223   -2.388091
 H    4.549965    0.109292   -1.998894
 H    2.805617    1.708737   -1.603016
 H    0.763963    2.110773   -1.263908
 H   -0.409635    4.253123   -0.826528
 H   -0.543540    3.676074    0.854397
 H   -1.836428    2.377693   -1.596034
 H   -2.669817    3.382293   -0.404108
 H   -1.939364    1.729790    1.379587
 H   -1.347863    0.676436    0.102163
 H   -4.234528    1.612568    0.417705
 H   -3.597270    0.043809    0.924001
 H   -2.986258   -0.451944   -1.455814
 H   -3.714809    1.084492   -1.941755
 H   -5.311614   -0.675152   -2.345814
 H   -5.913222    0.285514   -0.978075
 H   -6.246688   -0.777091    1.089915
 H   -5.341175   -3.365242    0.979918
