56 
6plg_ligand_ani.xyz
 O    7.506686   -0.244862    0.728436
 C    6.450711   -0.144816   -0.098275
 O    6.561870    0.195354   -1.251602
 C    5.169266   -0.564158    0.609939
 C    4.915862   -2.049964    0.377546
 C    5.150210   -2.679262   -0.842707
 N    4.869408   -3.960302   -1.091320
 C    4.339145   -4.675414   -0.100642
 C    4.069635   -4.155573    1.161952
 C    4.365835   -2.820469    1.398745
 C    3.993214    0.324361    0.252534
 C    3.282471    0.977885    1.258824
 C    2.189410    1.778773    0.957431
 C    3.573711    0.477189   -1.066618
 C    2.481740    1.272300   -1.371206
 C    1.786801    1.954439   -0.369117
 C    0.611884    2.855775   -0.694107
 C    0.656298    4.266505   -0.052996
 O    0.629583    4.906587   -1.331760
 C    0.702046    3.650678   -2.011013
 N   -0.679437    2.183015   -0.559048
 C   -1.272039    1.926897    0.649029
 O   -0.831356    2.399015    1.691796
 C   -2.482971    1.078848    0.562362
 C   -3.040465    0.446667   -0.532071
 N   -3.265062    0.818679    1.674971
 C   -3.025913    1.317008    3.013329
 C   -4.322037    0.026785    1.300173
 C   -5.382447   -0.492446    2.053859
 C   -6.318800   -1.267962    1.398949
 C   -4.204149   -0.225676   -0.084837
 C   -5.170389   -1.019687   -0.724503
Cl   -5.002831   -1.316309   -2.418337
 C   -6.220237   -1.534859    0.019384
Cl   -7.443375   -2.519189   -0.715624
 H    8.286520    0.011167    0.208468
 H    5.356556   -0.443670    1.680654
 H    5.594696   -2.122357   -1.667956
 H    4.121571   -5.717416   -0.328261
 H    3.639682   -4.783790    1.937582
 H    4.174209   -2.383409    2.376589
 H    3.591241    0.870075    2.296808
 H    1.632585    2.265366    1.754474
 H    4.126999   -0.005616   -1.867471
 H    2.174251    1.377626   -2.408584
 H   -0.209371    4.518490    0.563878
 H    1.587533    4.475725    0.490148
 H   -0.144851    3.502107   -2.692477
 H    1.646733    3.545088   -2.555158
 H   -0.969641    1.623142   -1.347833
 H   -2.703529    0.433134   -1.562625
 H   -2.060866    0.967721    3.383761
 H   -3.005469    2.408104    3.014051
 H   -3.820790    0.967703    3.674812
 H   -5.476953   -0.298360    3.118537
 H   -7.156985   -1.688826    1.944972
