31 
6pm9_ligand_ani.xyz
 C    1.769327    1.254922   -0.096457
 C    0.266183    1.417858   -0.038389
 C   -0.347345    0.515268    1.024761
 C    0.192071   -0.928315    0.913508
 C    3.579303   -0.444034   -0.414640
 C   -4.495965    0.190911    0.189161
 C   -2.164670   -0.493854    0.138417
 C   -5.732544    0.086244   -0.690639
 C    2.077433   -0.212202   -0.373770
 O    1.553738   -1.046980    0.639363
 O   -0.022455    2.773570    0.225857
 O    2.314598    1.999696   -1.161027
 F    3.836040   -1.756594   -0.642829
 N   -1.788108    0.505107    0.846204
 S   -0.929842   -1.718440   -0.311961
 N   -3.433605   -0.672397   -0.311986
 F    4.128734   -0.105379    0.784325
 H    2.209889    1.547221    0.870746
 H   -0.140159    1.122672   -1.017507
 H   -0.093507    0.921238    2.010870
 H    0.037770   -1.446447    1.861759
 H    4.059403    0.152366   -1.196533
 H   -4.736659   -0.061151    1.231776
 H   -4.096882    1.207908    0.192855
 H   -5.491708    0.354660   -1.723809
 H   -6.134464   -0.933666   -0.681182
 H   -6.519771    0.758062   -0.334390
 H    1.670019   -0.486931   -1.359362
 H   -0.987321    2.844901    0.233204
 H    2.021818    2.913010   -1.037357
 H   -3.681755   -1.601089   -0.617942
