32 
6poi_ligand_ani.xyz
 O   39.509572   12.001080    5.275019
 C   40.265428   13.126609    5.010064
 C   41.431532   13.305758    5.745902
 C   41.798578   15.405828    4.614637
 C   38.713297    9.244982    2.286310
 C   39.940422    6.839803    0.597958
 C   38.667363    7.578879    0.243578
 C   38.080365    8.233847    1.461454
 C   36.881304    8.012060    2.037326
 C   37.794938    9.537625    3.298992
 C   38.029278   10.468502    4.301814
 C   39.252306   11.122838    4.248931
 C   42.201090   14.445556    5.539401
 C   40.620153   15.222354    3.896182
 C   39.844963   14.081540    4.087340
 C   40.207558   10.846223    3.249547
 C   39.943054    9.905917    2.269314
 O   41.062336    7.239635    0.398729
 O   39.682433    5.664393    1.196730
 O   36.675272    8.780495    3.150097
 H   41.718639   12.544825    6.466026
 H   42.399636   16.297316    4.456240
 H   38.934748    8.327221   -0.508079
 H   37.949821    6.879818   -0.198124
 H   36.067738    7.342407    1.793115
 H   37.317106   10.680973    5.090959
 H   43.117947   14.584166    6.107154
 H   40.301167   15.971743    3.176214
 H   38.921839   13.932648    3.532314
 H   41.151024   11.382452    3.257588
 H   40.681377    9.677055    1.506684
 H   40.545717    5.271452    1.405585
