88 
6prf_ligand_dft.xyz
 C    4.591208    2.754730   -1.382671
 C    3.361515    3.292324   -0.998382
 C    3.323294    4.316286   -0.049555
 C   -7.140392   -0.020618   -0.986513
 C    5.609644   -4.107432   -0.923142
 C    2.125931   -3.283424   -1.453495
 C   -0.488419   -1.174787    1.783100
 C    0.928624   -1.716035    1.997940
 C    1.703879   -0.824578    2.968849
 C    0.852632   -3.158367    2.500469
 C   -0.485116    0.012324   -0.369299
 C    0.127374    1.148586   -1.208313
 C    1.428067    1.717582   -0.605619
 C   -5.696880   -0.084111    0.665757
 C    2.963527   -0.188497   -1.040877
 C  -10.202521   -0.620990   -0.123498
 C   -5.171558   -0.402255    1.921938
 C    2.082130    2.731364   -1.562836
 C    5.752541    3.252031   -0.812903
 C    4.511771    4.781084    0.490624
 C    5.748741    4.268475    0.129332
 C  -10.727779   -0.714780   -1.529709
 C   -4.924878    0.692984   -0.226123
 C   -3.905256    0.042768    2.263335
 C    4.407300   -2.060785   -1.064740
 C   -3.162587    0.808761    1.356488
 C    3.582241   -3.116116   -1.857650
 C   -3.656770    1.147884    0.097352
 C    4.201521   -4.455132   -1.411147
 C    3.315043   -4.846292   -0.193145
 C   -9.305387   -1.094795   -1.227603
 C    4.521100   -3.324764    1.174008
 C    5.283721   -2.863775   -0.088249
 F    6.931738    2.729369   -1.183029
 F    4.470990    5.767015    1.398217
 N   -6.937206   -0.478205    0.209547
 N   -0.492930    0.138619    1.100816
 N   -8.281125   -0.208073   -1.695130
 N    2.335897    0.658821   -0.197561
 O    3.951137   -4.619700    1.027200
 O   -1.354618    1.165235    3.229503
 O   -0.779708    2.183808   -1.516426
 O    2.122850   -4.094487   -0.291457
 O    2.925658   -0.164088   -2.259236
 O    3.646845   -1.111867   -0.324872
 O   -1.216362    2.553171    1.133363
 S   -5.830292    0.946047   -1.703787
 S   -1.506572    1.279053    1.790459
 H    4.644517    1.954213   -2.113050
 H    2.383426    4.754965    0.270061
 H    6.270148   -3.866733   -1.763046
 H    6.069944   -4.905234   -0.334827
 H    1.567101   -3.775960   -2.261601
 H    1.618742   -2.345404   -1.218448
 H   -0.965576   -1.062420    2.759363
 H   -1.089955   -1.884988    1.198266
 H    1.451360   -1.732454    1.033477
 H    1.624786    0.234607    2.698908
 H    1.297997   -0.917816    3.982968
 H    2.762544   -1.103807    3.002836
 H    1.853312   -3.582121    2.624449
 H    0.335013   -3.205946    3.467120
 H    0.325145   -3.798243    1.787090
 H    0.107720   -0.884818   -0.557645
 H   -1.494592   -0.192370   -0.755655
 H    0.373027    0.688800   -2.171755
 H    1.162980    2.236248    0.320749
 H  -10.003070    0.366075    0.278644
 H  -10.523021   -1.356384    0.606232
 H   -5.767435   -0.989388    2.611722
 H    2.275557    2.239997   -2.519662
 H    1.354603    3.527509   -1.741244
 H    6.666652    4.647824    0.560470
 H  -11.420084   -1.511561   -1.781161
 H  -10.891772    0.216083   -2.064419
 H   -3.486261   -0.175318    3.239463
 H    5.041735   -1.511148   -1.766103
 H    3.669139   -2.927712   -2.928638
 H   -3.064269    1.733049   -0.598339
 H    4.163384   -5.228808   -2.181633
 H    3.065332   -5.910574   -0.174064
 H   -9.042627   -2.150949   -1.237635
 H    5.215915   -3.420566    2.011583
 H    3.748483   -2.598949    1.446377
 H    6.161956   -2.284424    0.209515
 H   -8.256543   -0.007986   -2.683774
 H    2.463889    0.491306    0.787775
 H   -0.968341    2.639738   -0.678472
