88 
6prf_ligand_ani.xyz
 C    4.391142    2.998427   -1.395873
 C    3.082181    3.341132   -1.051380
 C    2.854376    4.351297   -0.113427
 C   -7.288414   -0.316245   -1.046368
 C    6.036061   -3.820981   -1.315392
 C    2.477989   -3.434215   -0.800589
 C   -0.410317   -1.169310    1.931744
 C    1.068815   -1.339315    2.294803
 C    1.524363   -0.246189    3.261845
 C    1.347606   -2.746667    2.825058
 C   -0.499120   -0.213110   -0.349072
 C    0.080461    0.901677   -1.237884
 C    1.340769    1.557760   -0.649352
 C   -5.868098   -0.227245    0.632385
 C    2.982839   -0.241957   -1.125805
 C  -10.275722   -0.712580   -0.051581
 C   -5.384106   -0.399942    1.933889
 C    1.915036    2.587433   -1.641117
 C    5.442079    3.683943   -0.806983
 C    3.939358    5.008689    0.443365
 C    5.249641    4.698250    0.116834
 C  -10.897217   -0.868763   -1.406548
 C   -5.046653    0.372176   -0.336122
 C   -4.107138    0.030517    2.242276
 C    4.595350   -1.951313   -1.241161
 C   -3.306310    0.625120    1.257895
 C    3.704882   -3.153782   -1.656492
 C   -3.760293    0.807549   -0.040964
 C    4.613807   -4.370773   -1.367060
 C    4.172005   -4.793951    0.060240
 C   -9.485462   -1.320170   -1.174556
 C    5.425198   -3.008488    0.951058
 C    5.784984   -2.568146   -0.477215
 F    6.700379    3.355377   -1.144434
 F    3.716224    5.984620    1.339894
 N   -7.137148   -0.601086    0.201060
 N   -0.637011    0.021944    1.099346
 N   -8.433576   -0.536845   -1.756461
 N    2.329798    0.568693   -0.245173
 O    5.104142   -4.392207    1.022789
 O   -1.568319    1.163493    3.138104
 O   -0.881944    1.865287   -1.610647
 O    2.906446   -4.224371    0.302248
 O    2.751371   -0.362042   -2.312718
 O    3.925934   -0.952651   -0.456133
 O   -1.446872    2.424001    0.962998
 S   -5.906687    0.454019   -1.853567
 S   -1.687647    1.177842    1.691746
 H    4.600138    2.205363   -2.108502
 H    1.847767    4.630578    0.189973
 H    6.398916   -3.560180   -2.316355
 H    6.749277   -4.513783   -0.857428
 H    1.733949   -4.002527   -1.378768
 H    1.985512   -2.537086   -0.419847
 H   -1.020059   -1.097837    2.837259
 H   -0.757910   -2.047003    1.370798
 H    1.642885   -1.208652    1.368362
 H    1.338215    0.751275    2.846668
 H    0.993843   -0.310920    4.221090
 H    2.597925   -0.333863    3.460937
 H    2.395483   -2.842821    3.131929
 H    0.720218   -2.977873    3.695426
 H    1.163503   -3.500000    2.050440
 H    0.186064   -1.060359   -0.436638
 H   -1.456162   -0.535358   -0.784362
 H    0.390235    0.397809   -2.159157
 H    1.048105    2.085320    0.268480
 H   -9.976781    0.288409    0.243890
 H  -10.594637   -1.358765    0.761549
 H   -6.017479   -0.863113    2.684914
 H    2.228576    2.054299   -2.544358
 H    1.112986    3.280448   -1.921121
 H    6.084869    5.224200    0.565276
 H  -11.661077   -1.627862   -1.550081
 H  -11.037596    0.033186   -1.994678
 H   -3.711885   -0.074713    3.248631
 H    4.980067   -1.470148   -2.147297
 H    3.428571   -3.031225   -2.706997
 H   -3.132813    1.265688   -0.801184
 H    4.483129   -5.200070   -2.070225
 H    4.093135   -5.878900    0.186773
 H   -9.305003   -2.394768   -1.126786
 H    6.283927   -2.885015    1.617884
 H    4.588670   -2.407791    1.329230
 H    6.631039   -1.870981   -0.454646
 H   -8.353330   -0.560531   -2.762508
 H    2.821214    0.715888    0.625096
 H   -1.124622    2.343951   -0.796921
