25 
6prt_ligand_dft.xyz
 C    2.437687   -0.534956   -0.252081
 C    2.658256    1.912331   -0.416944
 C    0.826133    0.754528    0.892938
 C    0.274047   -0.685863    0.832973
 C   -0.802789   -0.831920   -0.242003
 C   -2.087552   -0.116055    0.109770
 C   -4.253321    0.382773   -0.627907
 C    1.522229   -1.509326    0.482001
 N    1.952699    0.721762   -0.018934
 O    3.425149   -0.808216   -0.908157
 O   -2.995232   -0.248310   -0.868536
 O   -2.294675    0.493577    1.133582
 H    3.469138    1.611543   -1.082852
 H    3.080948    2.432509    0.452561
 H    1.987999    2.600439   -0.944350
 H    0.088697    1.499046    0.577034
 H    1.147752    1.019921    1.910719
 H   -0.150885   -0.967551    1.798561
 H   -0.444507   -0.450922   -1.206990
 H   -1.045150   -1.888447   -0.407632
 H   -4.727758   -0.034971    0.263352
 H   -4.856234    0.180913   -1.512587
 H   -4.122805    1.458769   -0.489520
 H    2.048256   -1.849413    1.381612
 H    1.325585   -2.389653   -0.134977
