25 
6prt_ligand_ani.xyz
 C    2.442526   -0.533901   -0.245639
 C    2.676270    1.904640   -0.418426
 C    0.841920    0.749001    0.899102
 C    0.272661   -0.680320    0.818534
 C   -0.804547   -0.812274   -0.262903
 C   -2.095711   -0.112411    0.105627
 C   -4.267828    0.380693   -0.612653
 C    1.515763   -1.510041    0.470268
 N    1.951055    0.722631   -0.032540
 O    3.446191   -0.809794   -0.876426
 O   -3.006317   -0.239020   -0.872277
 O   -2.312139    0.480023    1.137499
 H    3.488451    1.589424   -1.076529
 H    3.105349    2.420072    0.451592
 H    2.022540    2.600476   -0.955783
 H    0.106689    1.510941    0.622053
 H    1.184986    0.976014    1.920714
 H   -0.168238   -0.968430    1.774360
 H   -0.448401   -0.419256   -1.222382
 H   -1.041123   -1.869302   -0.437297
 H   -4.729371   -0.043362    0.282809
 H   -4.879619    0.177636   -1.491619
 H   -4.147409    1.457547   -0.469363
 H    2.033037   -1.880028    1.363018
 H    1.307528   -2.372129   -0.167618
