46 
6ps1_ligand_xtb.xyz
 C    3.271247   -1.208410   -0.735331
 C    4.346081   -1.349450    0.354526
 O    5.402139   -0.450103    0.136132
 C    4.955812    0.886217    0.123155
 C    3.896891    1.097521   -0.966125
 N    2.802562    0.162207   -0.763345
 C    1.706452    0.582514   -0.106951
 N    1.529412    1.855146    0.202849
 S    0.074231    2.108143    0.859473
 N   -0.418649    0.529572    0.775574
 C    0.537683   -0.198817    0.244711
 O    0.426338   -1.522327    0.050695
 C   -0.633834   -2.201122    0.700999
 C   -1.873964   -2.442746   -0.196294
 O   -2.943492   -2.890765    0.608326
 C   -2.392987   -1.179183   -0.896493
 N   -2.867678   -0.237608    0.134157
 C   -3.749934    0.911504   -0.276405
 C   -3.893114    1.778396    0.971129
 C   -3.065747    1.687261   -1.393422
 C   -5.105189    0.371378   -0.714900
 H    2.446771   -1.894132   -0.558226
 H    3.720292   -1.422781   -1.709538
 H    4.783594   -2.348269    0.336188
 H    3.889524   -1.169194    1.341858
 H    4.529724    1.154646    1.102022
 H    5.834987    1.501073   -0.068905
 H    3.509636    2.114521   -0.937152
 H    4.334079    0.889482   -1.946234
 H   -0.931673   -1.660343    1.605852
 H   -0.222765   -3.172554    0.992962
 H   -1.616801   -3.175735   -0.971421
 H   -2.808747   -3.801907    0.886277
 H   -1.606941   -0.722248   -1.496683
 H   -3.223084   -1.471324   -1.540552
 H   -3.373192   -0.810458    0.821595
 H   -1.970871    0.154783    0.584789
 H   -4.357778    1.224144    1.783204
 H   -2.924684    2.146627    1.302325
 H   -4.521042    2.637198    0.755969
 H   -3.013085    1.108002   -2.310890
 H   -2.063119    1.988242   -1.100332
 H   -3.633526    2.588013   -1.605746
 H   -5.036676   -0.198584   -1.637385
 H   -5.543825   -0.258900    0.055501
 H   -5.784294    1.199364   -0.894503
