48 
6ps4_ligand_ani.xyz
 C    3.614259    1.993810    0.072568
 N   -2.629477    0.342811    0.098042
 O   -0.177047   -0.820652    0.126130
 C    2.418394    2.642550    0.792275
 O   -2.336647   -1.293699    2.050333
 C    1.196307    1.783419    0.411253
 C    1.813299    0.440028    0.110878
 C    3.186068    0.552334   -0.068215
 C    3.992947   -0.556150   -0.348548
 C    5.483709   -0.412406   -0.523555
 C    3.353069   -1.786526   -0.452023
 C    1.970992   -1.922861   -0.286281
 C    1.191010   -0.802249   -0.010097
 C   -0.794662   -2.096847    0.318565
 C   -2.242635   -1.935219    0.776247
 C   -3.091011   -1.051534   -0.146100
 C   -3.044228   -1.444280   -1.616531
 C   -3.284108    1.433735   -0.661562
 C   -2.623711    2.757918   -0.292881
 C   -4.791030    1.471406   -0.412467
 H    4.557614    2.109030    0.618931
 H    3.761485    2.439422   -0.921540
 H   -1.611101    0.336469   -0.085810
 H   -2.730608    0.499525    1.119148
 H    2.293346    3.700017    0.541514
 H    2.575982    2.574843    1.873781
 H   -1.725920   -1.726605    2.660564
 H    0.451963    1.736009    1.215285
 H    0.691598    2.178057   -0.482215
 H    5.725331    0.280294   -1.338976
 H    5.961244   -0.021507    0.383948
 H    5.944557   -1.376793   -0.753176
 H    3.944814   -2.675333   -0.666468
 H    1.524606   -2.907979   -0.382828
 H   -0.767122   -2.656836   -0.623092
 H   -0.235603   -2.659967    1.076513
 H   -2.686401   -2.941089    0.824666
 H   -4.121557   -1.141964    0.211903
 H   -3.280377   -2.506431   -1.738086
 H   -2.055903   -1.260802   -2.055087
 H   -3.776331   -0.872920   -2.195311
 H   -3.114051    1.253142   -1.729766
 H   -1.548439    2.735687   -0.504970
 H   -2.760140    2.961819    0.776414
 H   -3.061126    3.587386   -0.858383
 H   -5.250325    2.285830   -0.981769
 H   -5.005571    1.643918    0.650378
 H   -5.278088    0.539149   -0.714735
