44 
6ps9_ligand_ani.xyz
 C    5.655328    0.955281   -1.075492
 C    4.278384   -0.729826    0.057357
 C    2.802399   -1.110109    0.097296
 C    2.059142    0.145049   -0.390633
 C    1.610428    1.072017    0.747188
 C    0.517085    0.508595    1.659448
 C   -1.585515    1.336759    0.583936
 C   -1.474776    2.713811    0.800323
 C   -2.463083    3.525325    0.267654
 C   -3.538581    2.990520   -0.465703
 C   -3.644286    1.629568   -0.674366
 C   -2.657785    0.793450   -0.138638
 C   -2.457712   -0.622253   -0.139753
 C   -1.313931   -0.882162    0.569860
 C   -0.752686   -2.254114    0.752181
 C   -1.907155   -3.255796    0.639929
 C   -3.244373   -1.689146   -0.774991
 C    3.127064    0.826459   -1.268264
 N    4.381061    0.428307   -0.658045
 N   -0.760084    0.298711    0.999681
 N   -2.744903   -2.947037   -0.513164
 O   -4.220517   -1.520988   -1.490325
 O    5.204272   -1.348158    0.549940
 H    6.426968    0.432779   -0.506507
 H    5.715713    2.029237   -0.868555
 H    5.832633    0.790017   -2.147102
 H    2.535123   -1.439782    1.104144
 H    2.659175   -1.958762   -0.581955
 H    1.190582   -0.112339   -1.003087
 H    2.478204    1.328635    1.365183
 H    1.242694    2.009924    0.312503
 H    0.824265   -0.437649    2.112222
 H    0.346702    1.203629    2.488453
 H   -0.645699    3.134910    1.363115
 H   -2.406407    4.600586    0.417767
 H   -4.292609    3.661167   -0.868784
 H   -4.460308    1.185228   -1.235297
 H   -0.243164   -2.381563    1.714557
 H   -0.016109   -2.460028   -0.039636
 H   -2.496479   -3.243521    1.569014
 H   -1.523119   -4.271637    0.510616
 H    3.063518    0.474138   -2.309683
 H    3.032255    1.918716   -1.282675
 H   -3.326183   -3.690950   -0.874503
