44 
6ps9_ligand_dft.xyz
 C    5.493703    0.995982   -1.218241
 C    4.192140   -0.662785    0.056282
 C    2.721625   -1.052164    0.171466
 C    1.950779    0.180878   -0.325903
 C    1.575077    1.137109    0.812643
 C    0.489219    0.599956    1.749600
 C   -1.619766    1.339238    0.601758
 C   -1.568169    2.720686    0.799416
 C   -2.569340    3.483346    0.218257
 C   -3.594648    2.889366   -0.539019
 C   -3.644788    1.518462   -0.729151
 C   -2.644506    0.728526   -0.151290
 C   -2.370536   -0.679640   -0.126323
 C   -1.228138   -0.862990    0.611438
 C   -0.604162   -2.205153    0.813288
 C   -1.706588   -3.260445    0.669576
 C   -3.059188   -1.786192   -0.793032
 C    2.966478    0.837009   -1.285736
 N    4.251342    0.442386   -0.744733
 N   -0.762207    0.344992    1.062461
 N   -2.498366   -3.024989   -0.529399
 O   -4.007112   -1.654058   -1.552990
 O    5.141025   -1.231769    0.561530
 H    6.304729    0.503362   -0.678714
 H    5.533456    2.075073   -1.031318
 H    5.620615    0.821984   -2.294579
 H    2.493614   -1.356868    1.195732
 H    2.556862   -1.924509   -0.472074
 H    1.043404   -0.093631   -0.872416
 H    2.467082    1.372240    1.408056
 H    1.220458    2.080250    0.380807
 H    0.807666   -0.328565    2.230424
 H    0.300269    1.320702    2.552203
 H   -0.780321    3.186575    1.384122
 H   -2.559901    4.561057    0.351142
 H   -4.359442    3.520969   -0.980810
 H   -4.428477    1.046983   -1.311634
 H   -0.136080   -2.306265    1.798177
 H    0.176426   -2.373557    0.059784
 H   -2.335296   -3.239668    1.573252
 H   -1.258463   -4.254708    0.596214
 H    2.844962    0.473012   -2.316946
 H    2.874162    1.929446   -1.305357
 H   -3.067563   -3.791129   -0.862876
