41 
6psb_ligand_ani.xyz
 C   -2.856741    1.996401    0.032971
 C   -0.653687    3.171917   -0.113129
 C   -0.027438    2.015344   -0.899656
 C   -2.079603    0.758673   -0.126744
 C   -0.774975    0.770104   -0.547187
 C    1.016684   -0.945280   -1.040367
 C    1.931778   -1.354151    0.127919
 C    2.183830   -0.208392    1.123614
 C    3.936236    1.612908    1.226799
 C    4.143992   -0.402236   -0.158518
 C    3.344857   -1.684261   -0.374275
 C   -1.333252   -1.375720   -0.255015
 C   -2.460792   -0.605530    0.068497
 C   -3.645551   -1.227431    0.479316
 C   -3.673721   -2.605904    0.557750
 C   -2.537066   -3.369534    0.231698
 C   -1.357148   -2.771616   -0.177548
 N   -2.109007    3.128857   -0.211974
 N   -0.306716   -0.518427   -0.634401
 N    3.386207    0.429295    0.618540
 O   -4.043135    2.057861    0.317949
 O    5.260326   -0.163041   -0.579990
 H   -0.329728    3.120130    0.938282
 H   -0.320598    4.133948   -0.511616
 H    1.045196    1.939685   -0.677882
 H   -0.123779    2.217753   -1.975144
 H    1.478477   -0.141782   -1.621463
 H    0.899213   -1.798488   -1.715752
 H    1.471688   -2.203430    0.640791
 H    2.345187   -0.608114    2.136472
 H    1.354260    0.504995    1.178851
 H    4.148396    1.463511    2.294718
 H    3.245959    2.458082    1.122449
 H    4.870825    1.843905    0.712200
 H    3.384980   -1.981572   -1.425290
 H    3.819317   -2.482110    0.208410
 H   -4.505262   -0.610390    0.721038
 H   -4.581412   -3.112577    0.874174
 H   -2.587985   -4.453165    0.302656
 H   -0.479440   -3.365161   -0.422690
 H   -2.610623    3.986390   -0.025773
