53 
6py0_ligand_ani.xyz
 C    4.102217    1.207613    0.213630
 C    5.397004    1.384003   -0.602818
 C    6.261512    0.123273   -0.661299
 C    5.465185   -1.063151   -1.201692
 C    4.179300   -1.313502   -0.407164
 C    3.322124   -0.026223   -0.337919
 C    2.052927   -0.280265    0.427708
 C    0.822529   -0.125711   -0.078632
 C   -0.445884   -0.349497    0.623543
 C   -1.591970   -0.118960   -0.054375
 C   -2.945914   -0.302789    0.436067
 C   -4.033601   -0.012138   -0.300494
 C   -5.433705   -0.177707    0.103566
 C   -6.378247    0.194465   -0.775438
 C   -7.868366    0.106911   -0.619590
 O   -8.541440    1.115385   -1.351700
 C    4.430596    1.046570    1.705671
 C    3.252623    2.473789    0.041480
 C    3.392282   -2.482859   -1.004429
 C   -0.386502   -0.813146    2.049094
 C   -5.729797   -0.755477    1.468916
 H    5.967629    2.224737   -0.186067
 H    5.118687    1.674780   -1.627055
 H    6.640783   -0.114121    0.342029
 H    7.144929    0.303343   -1.285918
 H    6.080637   -1.972446   -1.202154
 H    5.191157   -0.872669   -2.250544
 H    4.453829   -1.590509    0.622721
 H    3.042444    0.225138   -1.377504
 H    2.196469   -0.646902    1.445342
 H    0.704035    0.196644   -1.111934
 H   -1.504137    0.245689   -1.078912
 H   -3.060943   -0.697022    1.446051
 H   -3.896869    0.391270   -1.303757
 H   -6.050356    0.587867   -1.737875
 H   -8.241557   -0.835519   -1.036843
 H   -8.159629    0.120833    0.441745
 H   -8.254911    1.967219   -0.999350
 H    3.519033    1.013235    2.310703
 H    5.011082    0.142711    1.921122
 H    5.019420    1.903943    2.054773
 H    3.812469    3.354118    0.376914
 H    2.329488    2.420024    0.627538
 H    2.981334    2.627143   -1.009690
 H    2.516776   -2.737778   -0.398779
 H    3.040758   -2.233425   -2.013753
 H    4.020343   -3.377414   -1.082925
 H    0.134555   -1.773812    2.123787
 H    0.164191   -0.094012    2.665104
 H   -1.376256   -0.937439    2.493720
 H   -5.340004   -1.775915    1.553272
 H   -6.800494   -0.796432    1.680598
 H   -5.259249   -0.157544    2.256286
