36 
6pya_ligand_dft.xyz
 C  -15.080266  -31.524235   -2.350517
 C  -14.448498  -32.531034   -1.642306
 C  -13.543432  -33.405439   -2.273225
 C  -13.254108  -33.292805   -3.622780
 C  -13.897585  -32.276752   -4.332251
 C  -14.804429  -31.388115   -3.718158
 C  -15.257251  -30.477362   -4.734149
 C  -14.615573  -30.822272   -5.900283
 C  -14.690038  -30.234260   -7.245803
 C  -14.741853  -31.059465   -8.376068
 C  -14.803874  -30.509004   -9.650894
 C  -14.822528  -29.126319   -9.815143
 C  -14.772251  -28.297729   -8.697555
 C  -14.698786  -28.845200   -7.421392
 C  -16.282410  -29.408993   -4.553802
 C  -16.537195  -27.401903   -3.058684
 C  -14.544802  -26.665717   -2.965848
 C  -14.490632  -27.797957   -3.734112
 N  -13.820035  -31.926256   -5.662042
 N  -15.781889  -28.269577   -3.784883
 N  -15.828274  -26.422997   -2.545986
 H  -15.764180  -30.840371   -1.855814
 H  -14.645734  -32.647600   -0.581166
 H  -13.060673  -34.183137   -1.689270
 H  -12.555229  -33.967842   -4.107832
 H  -14.761027  -32.138952   -8.250962
 H  -14.848535  -31.161521  -10.517661
 H  -14.874926  -28.696409  -10.810709
 H  -14.777630  -27.218743   -8.817983
 H  -14.626232  -28.191795   -6.556419
 H  -16.640403  -29.060201   -5.528158
 H  -17.146350  -29.804234   -4.008010
 H  -17.604411  -27.539254   -2.939963
 H  -13.727565  -26.017611   -2.680946
 H  -13.676342  -28.326592   -4.204998
 H  -13.147056  -32.284347   -6.320229
