56 
6pyr_ligand_ani.xyz
 C   -2.746026    1.317104   -0.174341
 C   -3.532722    2.445026    0.215026
 C   -2.906751    3.620871    0.468611
 C   -0.816202    2.533368   -0.021621
 C    0.535147    2.970036   -0.052475
 C    0.446026    4.337144    0.296382
 C    2.959907    2.776162   -0.627958
 C    4.094712    2.027173   -0.878841
 C    1.639518    0.775296   -0.331659
 C    2.984751   -1.487723   -0.496422
 C    4.454129   -1.602033   -0.959332
 C    1.593009   -2.017115    1.605807
 C   -0.559021   -3.009313    2.137093
 C   -0.927793   -1.867559    2.843252
 C    2.089719   -2.285477   -1.448758
 C   -4.491033   -2.344695   -1.126907
 C   -4.707627   -0.094956   -0.926771
 C   -5.106640   -3.660638   -1.493775
 N   -1.551401    3.654723    0.331033
 N   -1.424614    1.357133   -0.251810
 N   -0.789439    4.750952    0.529441
 C    1.717251    2.173913   -0.348248
 C    3.986747    0.641684   -0.832244
 C    2.776338    0.017142   -0.535657
 O    5.064698   -2.627627   -1.167970
 N    4.963335   -0.324406   -1.060672
 C    2.944629   -2.085540    0.939680
 C    0.688216   -3.078738    1.522989
 C   -0.040277   -0.797313    2.927437
 C    1.209493   -0.880446    2.324217
 C   -3.385611    0.028749   -0.502023
 C   -2.678910   -1.168408   -0.434610
 N   -3.214570   -2.348364   -0.735748
 N   -5.264579   -1.256094   -1.240762
 H   -4.605384    2.372156    0.334346
 H   -3.379388    4.548903    0.766786
 H    1.250529    5.055502    0.412328
 H    3.035954    3.860650   -0.661169
 H    5.042233    2.510370   -1.102547
 H    0.676246    0.312534   -0.131492
 H   -1.247802   -3.847670    2.059454
 H   -1.902673   -1.809605    3.321562
 H    2.425054   -3.327504   -1.473889
 H    2.135176   -1.881305   -2.464090
 H    1.045586   -2.260198   -1.120645
 H   -5.346554    0.783350   -1.041413
 H   -4.678633   -4.457735   -0.881482
 H   -6.189773   -3.617073   -1.364146
 H   -4.896088   -3.895135   -2.542829
 H    5.901270   -0.147086   -1.384554
 H    3.682228   -1.545754    1.543593
 H    3.287299   -3.123164    0.865567
 H    0.961907   -3.971003    0.960940
 H   -0.320937    0.101502    3.470816
 H    1.883719   -0.027470    2.367784
 H   -1.634540   -1.153130   -0.124639
