54 
6pz4_ligand_ani.xyz
 C   -6.547596   -1.226309    3.432256
 O   -5.415661   -1.049542    2.619227
 C   -5.489344   -1.818221    1.443769
 C   -4.255883   -1.614405    0.593370
 C   -3.658407   -0.247179    0.521157
 C   -2.928879   -1.348522    1.243213
 S   -4.413314   -2.620391   -0.884129
 C   -3.145022   -1.964622   -1.963551
 N   -2.764197   -2.562516   -3.020484
 N   -2.555133   -0.781505   -1.594052
 C   -3.166454    0.296634   -0.814700
 C   -4.359881    0.859397   -1.600058
 C   -2.061703    1.336589   -0.557961
 C   -0.723272    0.919901   -0.501703
 C   -2.317826    2.674951   -0.287710
 F   -3.559979    3.192547   -0.271654
 C   -1.281237    3.564731   -0.009909
 F   -1.590751    4.845863    0.224324
 C    0.033457    3.149818    0.033577
 C    0.306909    1.801700   -0.203240
 N    1.643880    1.376781   -0.139139
 C    2.127522    0.110097   -0.258816
 O    1.472101   -0.896421   -0.491596
 C    3.614757    0.022597   -0.073692
 C    4.252265   -1.199842   -0.168299
 N    5.577227   -1.316420   -0.004819
 N    4.293219    1.156447    0.186685
 C    5.595255    1.054250    0.349553
 C    6.231286   -0.201063    0.250841
 O    7.562036   -0.226860    0.430055
 C    8.198974   -1.507966    0.326548
 C    9.631656   -1.316010    0.540332
 C   10.812664   -1.170893    0.714197
 H   -7.469199   -0.919878    2.912255
 H   -6.416682   -0.601395    4.319211
 H   -6.657717   -2.275903    3.748275
 H   -5.585528   -2.885952    1.693943
 H   -6.376607   -1.531302    0.855639
 H   -4.142182    0.498625    1.148500
 H   -2.935869   -1.316195    2.328608
 H   -2.035402   -1.747068    0.770084
 H   -3.276804   -3.431268   -3.154553
 H   -1.886395   -0.472248   -2.288346
 H   -5.028692    0.030892   -1.849927
 H   -4.014784    1.331550   -2.525914
 H   -4.916574    1.588014   -1.012023
 H   -0.461698   -0.113352   -0.667477
 H    0.808853    3.874089    0.258456
 H    2.342353    2.082145    0.058866
 H    3.677297   -2.096325   -0.379726
 H    6.175592    1.948649    0.561570
 H    8.003060   -1.940325   -0.661321
 H    7.778340   -2.192343    1.072124
 H   11.860038   -1.030555    0.869924
