77 
6q3y_ligand_xtb.xyz
 O    6.548621   -0.040827   -0.223177
 C    5.417013    0.300073    0.049885
 N    4.923174    1.529914   -0.249289
 C    5.802513    2.508356   -0.854440
 C    4.472188   -0.601343    0.835740
 C    4.635189   -0.284792    2.338944
 C    5.981865   -0.754466    2.870888
 N    3.099412   -0.447874    0.409296
 C    2.217826   -1.585931    0.548264
 C    2.688314   -2.728975   -0.313629
 C    2.917812   -3.987209    0.224506
 C    3.366170   -5.021946   -0.578915
 C    3.597767   -4.803814   -1.925727
 C    3.374247   -3.549174   -2.469211
 C    2.919321   -2.518498   -1.668049
 C    2.636527    0.792433    0.160741
 C    3.568423    1.831889   -0.099895
 N    1.324187    1.014172    0.129291
 C    0.926391    2.267288   -0.086239
 N    1.721842    3.316953   -0.258924
 C    3.030873    3.090326   -0.284228
 N   -0.402428    2.582798   -0.133039
 C   -1.530708    1.808033   -0.045463
 C   -1.525107    0.433972    0.145691
 C   -2.709084   -0.279267    0.206419
 C   -3.929773    0.362314    0.081696
 C   -3.950115    1.744736   -0.100579
 C   -2.777275    2.472427   -0.164659
 O   -2.699567    3.819240   -0.341042
 C   -3.886915    4.580974   -0.453002
 C   -3.481776    6.036560   -0.619315
 C   -5.232594   -0.402297    0.127125
 C   -5.401315   -1.148980    1.456024
 C   -6.689770   -1.960246    1.467302
 N   -6.692924   -2.933028    0.343902
 C   -7.849543   -3.839590    0.400799
 C   -6.609285   -2.215704   -0.954748
 C   -5.319545   -1.409971   -1.026301
 H    5.389115    2.859490   -1.800435
 H    6.758176    2.017624   -1.032145
 H    5.951343    3.355879   -0.183653
 H    4.776101   -1.637323    0.651664
 H    3.830343   -0.780449    2.887418
 H    4.523804    0.792140    2.490441
 H    6.097551   -0.467103    3.912862
 H    6.794381   -0.317779    2.296762
 H    6.061208   -1.836717    2.798971
 H    2.160538   -1.901151    1.597247
 H    1.228100   -1.250941    0.230769
 H    2.747908   -4.158497    1.278508
 H    3.543610   -5.996739   -0.149611
 H    3.956162   -5.607970   -2.550202
 H    3.558022   -3.374135   -3.518595
 H    2.746643   -1.537628   -2.087515
 H    3.642769    3.960864   -0.467711
 H   -0.566826    3.570726   -0.283130
 H   -0.574743   -0.058866    0.246009
 H   -2.656595   -1.348585    0.351200
 H   -4.901551    2.245044   -0.194654
 H   -4.498602    4.456233    0.451171
 H   -4.467646    4.244948   -1.323168
 H   -4.367334    6.658937   -0.705082
 H   -2.900302    6.360942    0.239111
 H   -2.875758    6.154452   -1.513201
 H   -6.055714    0.312286    0.025293
 H   -4.544755   -1.803897    1.624342
 H   -5.425609   -0.432421    2.276448
 H   -7.556553   -1.306711    1.348481
 H   -6.792240   -2.507569    2.406505
 H   -5.833247   -3.488265    0.430725
 H   -7.805869   -4.561401   -0.412919
 H   -8.770098   -3.265180    0.310775
 H   -7.863507   -4.378028    1.346799
 H   -6.651938   -2.947224   -1.764226
 H   -7.478088   -1.558718   -1.032619
 H   -5.284848   -0.878958   -1.977058
 H   -4.457029   -2.078216   -0.998205
