77 
6q3z_ligand_ani.xyz
 O    6.472493    0.730745   -0.032024
 C    5.276128    0.942420    0.065022
 N    4.709856    2.161411   -0.265640
 C    5.601507    3.247380   -0.652614
 C    4.335595   -0.122439    0.629889
 C    4.332911   -0.093670    2.173643
 C    5.654817   -0.548327    2.785965
 N    3.001670    0.003392    0.065667
 C    2.080263   -1.122692    0.109399
 C    2.726977   -2.433215   -0.229690
 S    2.984993   -3.668505    0.951126
 C    3.769026   -4.676687   -0.207374
 C    3.818224   -4.107973   -1.444702
 C    4.443341   -4.745149   -2.654326
 C    3.200128   -2.812430   -1.448715
 C    2.470015    1.248281   -0.088199
 C    3.327075    2.361245   -0.241417
 N    1.140261    1.372379   -0.121238
 C    0.653297    2.598341   -0.247908
 N    1.370527    3.730630   -0.381794
 C    2.692409    3.587913   -0.386176
 N   -0.701995    2.799592   -0.250081
 C   -1.773637    1.903125   -0.152809
 C   -1.660299    0.519943   -0.075766
 C   -2.798200   -0.277450    0.002787
 C   -4.075289    0.270631    0.007746
 C   -4.199220    1.663622   -0.062882
 C   -3.072314    2.467203   -0.141412
 O   -3.111638    3.830971   -0.215561
 C   -4.386831    4.454367   -0.188448
 C   -4.176296    5.950981   -0.265641
 C   -5.310634   -0.603873    0.082645
 C   -5.365758   -1.421683    1.382730
 C   -6.616384   -2.287546    1.431580
 N   -6.657330   -3.200306    0.240296
 C   -7.763976   -4.160539    0.313953
 C   -6.678851   -2.405366   -1.033051
 C   -5.429914   -1.541373   -1.129636
 H    6.606102    2.835400   -0.719513
 H    5.308182    3.652546   -1.626234
 H    5.587032    4.048528    0.094904
 H    4.749016   -1.081638    0.302419
 H    4.081169    0.920302    2.507542
 H    3.521815   -0.745455    2.520288
 H    5.884006   -1.580255    2.495167
 H    5.598690   -0.513039    3.878141
 H    6.487260    0.083467    2.462474
 H    1.302360   -0.918459   -0.635322
 H    1.579724   -1.180383    1.089245
 H    4.154486   -5.648353    0.079089
 H    3.712800   -4.860368   -3.462968
 H    5.266797   -4.134359   -3.042202
 H    4.844470   -5.736460   -2.421621
 H    3.123690   -2.179886   -2.330041
 H    3.266199    4.506719   -0.507107
 H   -0.964307    3.772139   -0.332668
 H   -0.679235    0.065294   -0.082896
 H   -2.658368   -1.355242    0.059625
 H   -5.191152    2.107467   -0.057167
 H   -4.910432    4.181168    0.737535
 H   -4.987389    4.100474   -1.037138
 H   -5.143364    6.462745   -0.243824
 H   -3.662351    6.222810   -1.192346
 H   -3.580176    6.302609    0.581596
 H   -6.191927    0.055582    0.073886
 H   -4.486176   -2.077654    1.435735
 H   -5.329915   -0.761701    2.254787
 H   -7.518036   -1.664031    1.408553
 H   -6.650300   -2.897444    2.338226
 H   -5.768034   -3.733654    0.243254
 H   -8.719676   -3.622851    0.311510
 H   -7.740531   -4.830939   -0.549255
 H   -7.696581   -4.744766    1.235479
 H   -7.580018   -1.780784   -1.024410
 H   -6.756315   -3.098813   -1.874659
 H   -5.439636   -0.967204   -2.061032
 H   -4.552189   -2.201093   -1.164422
