31 
6q4g_ligand_ani.xyz
 C    0.220508   -8.400235  -26.103198
 C    0.010495   -9.551939  -25.358569
 C   -0.515207   -9.463335  -24.072725
 C   -0.155139   -4.611935  -26.002520
 C   -0.825400   -8.220627  -23.525450
 C   -1.433569   -8.123878  -22.150258
 C   -2.949447   -8.199142  -22.179115
 C   -0.631906   -7.071925  -24.283626
 C   -0.685233   -2.736332  -25.134804
 C    0.157236   -3.627274  -26.958143
 N    1.404082   -5.401982  -29.648791
 N    0.652212   -6.147715  -27.611771
 C   -0.101414   -7.142817  -25.575016
 N   -0.684653   -4.009477  -24.865713
 C    0.896031   -5.100998  -28.419673
 C    0.133198   -5.934324  -26.406912
 O   -3.456719   -8.156212  -20.929935
 O   -3.642185   -8.282047  -23.161986
 N   -0.191185   -2.437879  -26.377198
 N    0.678414   -3.806081  -28.163374
 H    0.633114   -8.458860  -27.105969
 H    0.258450  -10.522878  -25.781322
 H   -0.689624  -10.363329  -23.487573
 H   -1.075641   -8.927251  -21.495970
 H   -1.162802   -7.178106  -21.664382
 H   -0.901572   -6.102832  -23.871544
 H   -1.032683   -1.956606  -24.470794
 H    1.822798   -4.650726  -30.174443
 H    1.785733   -6.328208  -29.759287
 H   -4.421284   -8.205469  -21.033339
 H   -0.095609   -1.529584  -26.801599
