27 
6q54_ligand_ani.xyz
 N   -1.430748    1.938488   -1.012761
 N   -1.586768   -0.056700   -0.273357
 C   -0.539925    0.474176    0.419932
 C   -0.473850    1.749430   -0.087675
 C   -2.166859   -1.392829   -0.195041
 C   -3.297488   -1.492738    0.821497
 O    1.017464   -2.219901   -0.564652
 C    1.791100   -1.323710   -0.339024
 C    1.785178   -0.429648    0.888879
 C    0.354237   -0.206256    1.402887
 N   -2.113895    0.828596   -1.117382
 N    2.533579    0.838315    0.576594
 O    2.824498   -1.020536   -1.153879
 O    0.432592    2.703506    0.262676
 H   -1.359714   -2.093194    0.025014
 H   -2.532624   -1.610843   -1.202255
 H   -3.724384   -2.499701    0.797240
 H   -4.086669   -0.773933    0.582391
 H   -2.941036   -1.292363    1.837184
 H    2.343032   -0.979442    1.649601
 H    0.413610    0.406445    2.308878
 H   -0.052923   -1.178221    1.695723
 H    3.075085    0.665394   -0.286645
 H    3.180056    1.076505    1.344722
 H    1.886718    1.632527    0.416656
 H    2.789285   -1.643832   -1.897693
 H    0.283603    3.474653   -0.304361
