27 
6q54_ligand_xtb.xyz
 N   -1.112525    2.047572   -0.908334
 N   -1.642001    0.079275   -0.313329
 C   -0.505991    0.349820    0.386875
 C   -0.192938    1.634518   -0.032558
 C   -2.455139   -1.109173   -0.304733
 C   -3.346176   -1.169217    0.931489
 O    0.848477   -1.951080   -1.076895
 C    1.668289   -1.237748   -0.592628
 C    1.646698   -0.818328    0.891690
 C    0.196085   -0.572645    1.327321
 N   -1.972007    1.107643   -1.061227
 N    2.493824    0.388938    1.099134
 O    2.713481   -0.711365   -1.226044
 O    0.891910    2.385736    0.330848
 H   -1.803158   -1.983965   -0.373823
 H   -3.071274   -1.053589   -1.203559
 H   -3.968394   -2.057291    0.883019
 H   -3.993851   -0.297303    0.966848
 H   -2.761055   -1.206215    1.847461
 H    2.069444   -1.652941    1.463367
 H    0.180641   -0.168878    2.343193
 H   -0.321842   -1.531538    1.336759
 H    3.340358    0.313618    0.519362
 H    2.752916    0.501729    2.083708
 H    1.964213    1.260111    0.796173
 H    2.748667   -0.990275   -2.157071
 H    0.796380    3.252857   -0.087151
