36 
6q6y_ligand_ani.xyz
 N   -1.811486    1.067336   -0.837173
 C   -0.570153    1.395059   -0.286697
 C   -2.039628   -1.507894   -0.029515
 C   -2.694371   -1.227858    1.165102
 C   -2.501776   -2.071557    2.253663
 C   -1.669071   -3.182821    2.142790
 C   -1.207378   -2.615798   -0.156022
 C    4.032585   -1.996402   -0.136020
 C    5.385995   -0.017094   -0.347394
 O   -1.344539   -0.842668   -2.457475
 S   -2.271297   -0.425065   -1.419288
 O   -3.690358   -0.268049   -1.685839
 C   -1.026249   -3.455892    0.937777
 C   -0.427087    2.561391    0.487289
Cl   -1.819188    3.574089    0.757508
 C    0.568330    0.622196   -0.461663
 C    1.772593    1.018779    0.117755
 C    1.780224    2.197163    0.860579
 N    0.694606    2.949904    1.043868
 C    2.994188    0.191840   -0.036955
 C    4.251977    0.775447   -0.206654
 C    5.280885   -1.405103   -0.308612
 C    2.900240   -1.200921   -0.009589
 H   -2.580462    1.712880   -0.707211
 H   -3.355245   -0.366145    1.241705
 H   -3.005487   -1.862581    3.193384
 H   -1.522517   -3.839768    2.996302
 H   -0.718867   -2.816151   -1.105941
 H    3.938739   -3.079082   -0.109308
 H    6.356763    0.452915   -0.481106
 H   -0.379087   -4.324747    0.849475
 H    0.522689   -0.270530   -1.077919
 H    2.688074    2.539428    1.353731
 H    4.341353    1.858384   -0.253015
 H    6.168440   -2.023212   -0.413928
 H    1.922064   -1.658025    0.129440
