55 
6q74_ligand_ani.xyz
 N    2.616365   -1.209729    1.155663
 N    0.740850   -3.030162   -0.764842
 C    1.414796    0.869483    0.548460
 C    2.500597    0.028144    0.491499
 C    0.332648   -2.344067    0.336208
 C   -0.926499   -1.848949    0.185971
 C   -2.596201   -1.957141   -1.729988
 C   -4.407068   -1.920025    0.022771
 C   -4.376378    0.856144    0.114445
 C   -0.278809   -2.956243   -1.597799
 C    0.324119    3.042344   -0.070911
 C   -0.707163    5.291833   -0.470638
 C    0.594363    4.518174   -0.306069
 O    0.553077   -1.235892    2.637157
 S    1.345080   -2.080747    1.765477
 O    1.911516   -3.336970    2.201829
 C    1.465071    2.105000   -0.128067
 O   -1.627124    4.949084    0.539069
 C   -2.060403    3.619345    0.376020
 C   -0.918112    2.651896    0.230782
 C    2.624157    2.401220   -0.832477
 N    3.682272    1.584717   -0.912451
 C    3.618376    0.443271   -0.270643
 O    4.646905   -0.424355   -0.309263
 C    5.785230   -0.048396   -1.080706
 C   -0.324319   -3.561559   -2.961946
 N   -1.323102   -2.246606   -1.068034
 C   -3.543182   -1.218529   -0.820187
 C   -3.536757    0.177536   -0.762867
 C   -5.235015    0.146268    0.949925
 C   -5.249462   -1.244192    0.901773
 H    3.433826   -1.764065    0.927668
 H    0.540559    0.598581    1.134669
 H   -1.550897   -1.265989    0.844401
 H   -3.044008   -2.904741   -2.049962
 H   -2.399182   -1.364101   -2.631325
 H   -4.419551   -3.008472   -0.010519
 H   -4.365865    1.943564    0.144664
 H   -1.142494    5.083117   -1.461940
 H   -0.536562    6.369805   -0.393577
 H    1.209825    4.672697   -1.194649
 H    1.157277    4.914354    0.548446
 H   -2.709185    3.549772   -0.514186
 H   -2.663918    3.379571    1.256551
 H   -1.185001    1.603024    0.352453
 H    2.716576    3.337218   -1.377216
 H    5.511829    0.099610   -2.129156
 H    6.226384    0.875703   -0.697108
 H    6.487323   -0.876627   -0.982580
 H   -0.485998   -2.802304   -3.737904
 H    0.625409   -4.061728   -3.159546
 H   -1.130935   -4.300623   -3.051550
 H   -2.873289    0.734085   -1.423306
 H   -5.893844    0.674144    1.633520
 H   -5.919187   -1.806435    1.548484
