42 
6q7a_ligand_ani.xyz
 C    5.367942  -32.673113   -9.330848
 C    4.750446  -33.476689   -8.357773
 C    7.572306  -34.295374   -7.229449
 C    5.821706  -35.745416   -8.478580
 C    4.186424  -36.887355   -9.246373
 C    3.669438  -35.637167   -8.990734
 C    2.311825  -35.063538   -9.184816
 C    3.476710  -38.078088   -9.827509
 C    2.879959  -37.814601  -11.200053
 C    1.567981  -38.179099  -11.496773
 C    1.027825  -37.936000  -12.756723
 C    1.802373  -37.325611  -13.738847
Cl    6.159453  -33.405401  -10.694395
 C    4.110723  -32.826102   -7.292667
 C    4.089386  -31.439892   -7.194135
 C    4.712929  -30.675401   -8.170221
 C    5.353563  -31.286455   -9.239864
Cl    3.338662  -33.749523   -6.035462
 N    4.729907  -34.895847   -8.480957
 N    5.507893  -36.937898   -8.930439
 C    3.115791  -36.963868  -13.452811
 C    3.651313  -37.205616  -12.191530
 C    7.119019  -35.337610   -7.989413
 O    8.149287  -36.166600   -8.294956
 C    9.264702  -35.638136   -7.745681
 C    8.979842  -34.492722   -7.076100
 H    6.966237  -33.496161   -6.830302
 H    1.817549  -34.884483   -8.222616
 H    2.362876  -34.100758   -9.706861
 H    1.691953  -35.747945   -9.769025
 H    2.678068  -38.407056   -9.149153
 H    4.212705  -38.888850   -9.878708
 H    0.956036  -38.654576  -10.731520
 H    0.000923  -38.223771  -12.969352
 H    1.384912  -37.134410  -14.724016
 H    3.583543  -30.974839   -6.353675
 H    4.699246  -29.592375   -8.097599
 H    5.839756  -30.694607  -10.010148
 H    3.725951  -36.489068  -14.217476
 H    4.680736  -36.925241  -11.969843
 H   10.174482  -36.195353   -7.915093
 H    9.681620  -33.869384   -6.539505
