31 
6q7v_ligand_ani.xyz
 C  -33.950242  -27.031959    5.832117
 C  -35.237554  -25.302575    4.774469
 C  -31.000307  -21.255473    1.124598
 C  -31.557089  -24.773697    1.817774
 C  -31.417909  -22.511632    1.857753
 C  -31.976542  -22.415741    3.114401
 C  -32.351676  -23.605331    3.765423
 C  -33.030951  -24.685484    5.885997
 C  -34.098646  -25.688764    5.483427
 C  -34.904254  -27.980055    5.478044
 C  -36.018807  -27.560909    4.769359
 C  -36.204131  -26.235205    4.412991
 C  -32.138327  -24.807268    3.096060
 F  -36.949591  -28.466868    4.419568
 F  -31.239012  -20.151409    1.860136
 F  -31.665800  -21.118471   -0.030972
 F  -29.691775  -21.268283    0.834221
 N  -31.369638  -25.948130    1.116605
 N  -31.201722  -23.653876    1.198018
 N  -32.943862  -23.526373    5.016198
 H  -33.071052  -27.347207    6.391140
 H  -35.364073  -24.259817    4.501106
 H  -32.126926  -21.451437    3.589402
 H  -32.067828  -25.219194    5.957899
 H  -33.250578  -24.302874    6.890752
 H  -34.795592  -29.028331    5.739380
 H  -37.093404  -25.949050    3.859591
 H  -32.426208  -25.760963    3.523839
 H  -30.743803  -25.855967    0.329016
 H  -31.233730  -26.784499    1.663822
 H  -32.718974  -22.669160    5.499867
