57 
6q89_ligand_ani.xyz
 C    1.972690   -0.584212    0.726551
 N   -2.090903    3.607194   -1.751426
 O    1.894549   -0.302770    1.908976
 S    0.891366   -1.914670   -1.349075
 C   -2.814045    2.480759   -1.701054
 N    1.425762   -1.778407    0.243414
 O   -3.772630   -1.495932    2.513034
 N   -2.762607    1.490869   -0.808825
 O   -4.549928   -2.412105    0.079756
 C   -1.849803    1.708508    0.139969
 N    1.677585    1.387480   -0.679657
 O   -1.233292   -1.365709    0.759529
 C   -1.027955    2.827569    0.218425
 O   -0.263080   -3.025825   -1.209449
 C   -1.177492    3.794789   -0.789477
 N   -0.381132    4.895273   -0.815425
 C    4.938714   -0.131629    0.822195
 N   -0.146032    2.732502    1.275059
 C   -0.459921    1.588879    1.834826
 C    3.950982    0.912501    0.286471
 N   -1.493389    0.916961    1.221299
 C    2.667835    0.321158   -0.290119
 C    5.244674   -1.232980   -0.196660
 C    6.221582    0.562429    1.279627
 O    0.263670   -0.656359   -1.738854
 C   -1.897279   -0.423430    1.574538
 C   -3.397220   -0.694822    1.419255
 C   -3.466793   -1.502680    0.121855
 C   -2.151696   -2.263691    0.128131
 C   -1.643907   -2.609652   -1.260769
 O    1.946864   -2.475838   -2.146821
 H   -3.539209    2.365162   -2.500489
 H    0.761852   -2.178760    0.904663
 H   -4.431787   -2.119857    2.171794
 H   -5.336109   -1.939918   -0.222293
 H    0.835422    0.891121   -1.047558
 H    1.414852    1.967377    0.146687
 H    2.061998    1.988965   -1.431749
 H   -0.676658    5.652035   -1.414344
 H    0.095431    5.128151    0.044385
 H    4.470779   -0.603099    1.696628
 H    0.088601    1.113273    2.629815
 H    4.441282    1.506283   -0.497664
 H    3.684577    1.594691    1.102649
 H    2.879277   -0.252140   -1.196264
 H    5.644808   -0.813477   -1.129447
 H    5.989928   -1.928059    0.204450
 H    4.354153   -1.821036   -0.448634
 H    6.007496    1.338931    2.022627
 H    6.728382    1.039326    0.430689
 H    6.921412   -0.151383    1.728551
 H   -1.590499   -0.571418    2.614377
 H   -3.988031    0.227972    1.362864
 H   -3.469810   -0.799874   -0.719830
 H   -2.234935   -3.174919    0.735721
 H   -1.749226   -1.761787   -1.944799
 H   -2.182242   -3.470612   -1.660661
