57 
6q89_ligand_xtb.xyz
 C    1.977866   -0.826201    0.626689
 N   -1.764306    3.589028   -0.973574
 O    2.063330   -1.137037    1.782585
 S    0.623822   -0.789180   -1.747287
 C   -2.704171    2.666490   -1.009606
 N    1.003813   -1.317577   -0.194269
 O   -4.388790   -1.565544    2.225783
 N   -2.785931    1.558382   -0.289623
 O   -4.778771   -2.432776   -0.198525
 C   -1.757097    1.403252    0.538829
 N    2.263776    1.510886   -0.086351
 O   -1.628027   -1.796637    0.572072
 C   -0.676457    2.289456    0.647650
 O   -0.602700   -1.658962   -2.104208
 C   -0.728305    3.448179   -0.149811
 N    0.241967    4.388623   -0.167536
 C    5.086421   -1.023339    0.620433
 N    0.239214    1.779743    1.546169
 C   -0.291183    0.670020    1.980390
 C    4.244543    0.259737    0.730003
 N   -1.493208    0.377731    1.414139
 C    2.932519    0.175740   -0.045462
 C    5.537848   -1.283883   -0.814723
 C    6.300039   -0.897219    1.539372
 O    0.268227    0.598736   -1.597205
 C   -2.157823   -0.900517    1.525152
 C   -3.684141   -0.825176    1.289232
 C   -3.868042   -1.374539   -0.160569
 C   -2.482729   -1.927228   -0.555756
 C   -1.920147   -1.206415   -1.788068
 O    1.717092   -1.086244   -2.588439
 H   -3.513413    2.839412   -1.704510
 H    0.316206   -1.926041    0.243772
 H   -4.429776   -2.492087    1.939878
 H   -5.674105   -2.104842   -0.044198
 H    1.552367    1.498543   -0.849908
 H    1.671632    1.716051    0.806144
 H    2.956358    2.246005   -0.247286
 H    0.015467    5.229078   -0.677826
 H    0.820478    4.492932    0.649854
 H    4.478818   -1.865332    0.962614
 H    0.168773    0.035082    2.712528
 H    4.838012    1.092601    0.346241
 H    4.021410    0.440486    1.782837
 H    3.109713   -0.152339   -1.073111
 H    6.077977   -0.425264   -1.207659
 H    6.208931   -2.137753   -0.835480
 H    4.702547   -1.506760   -1.474698
 H    5.990864   -0.733130    2.568080
 H    6.930892   -0.067752    1.228701
 H    6.893048   -1.806051    1.505097
 H   -1.935776   -1.304542    2.520223
 H   -4.027170    0.208516    1.370350
 H   -4.159909   -0.559816   -0.832213
 H   -2.561229   -2.999426   -0.768077
 H   -1.886291   -0.125371   -1.630339
 H   -2.541981   -1.435470   -2.656145
