28 
6q8p_ligand_ani.xyz
 C   -5.378117  -30.516668  -13.263617
 C   -5.493803  -31.664046  -14.001075
 C   -5.720724  -32.998064  -12.173393
 C   -5.615450  -31.893395  -11.278023
 C   -5.680860  -32.057113   -9.887511
 C   -5.589167  -30.969724   -9.032357
 C   -5.412360  -29.649659   -9.566417
 C   -5.315525  -29.498799  -10.957577
 C   -5.474655  -28.789885   -7.455287
 C   -5.445375  -26.368110   -7.204592
 C   -5.678069  -31.043391   -7.605160
 O   -4.110172  -27.553494  -11.087944
 N   -5.085367  -28.157624  -11.485970
 O   -5.880939  -27.743972  -12.315176
 C   -5.438777  -30.590741  -11.842984
 N   -5.376935  -28.570895   -8.749145
 N   -5.404146  -27.702747   -6.646035
 N   -5.625071  -29.998796   -6.827232
 N   -5.665150  -32.905673  -13.475080
 H   -5.249277  -29.557903  -13.750013
 H   -5.452840  -31.621646  -15.086589
 H   -5.857527  -33.995640  -11.752167
 H   -5.813777  -33.056800   -9.479090
 H   -5.389300  -25.642204   -6.390430
 H   -4.592891  -26.227856   -7.874881
 H   -6.354881  -26.194268   -7.792986
 H   -5.803013  -32.017774   -7.127808
 H   -5.676831  -27.859111   -5.689463
