28 
6q8p_ligand_dft.xyz
 C    2.924947    1.117156    0.012641
 C    4.171381    0.561684   -0.004363
 C    3.397950   -1.576904   -0.025675
 C    2.038719   -1.141640   -0.011945
 C    0.974668   -2.049075   -0.016758
 C   -0.332025   -1.593316   -0.005867
 C   -0.630208   -0.193804   -0.006505
 C    0.447439    0.696508   -0.011039
 C   -2.856316   -0.663134    0.035294
 C   -4.530756    1.124447    0.077940
 C   -1.471669   -2.464158    0.007056
 O    0.614907    2.814117    0.865114
 N    0.160955    2.131481   -0.043994
 O   -0.490891    2.554198   -0.980720
 C    1.782809    0.264285    0.006249
 N   -1.910688    0.251564    0.031654
 N   -4.140600   -0.268366    0.051455
 N   -2.694662   -2.043722    0.022459
 N    4.430126   -0.781220   -0.023877
 H    2.807662    2.193107    0.045134
 H    5.051104    1.198937    0.000862
 H    3.598974   -2.648807   -0.040479
 H    1.177749   -3.118112   -0.025775
 H   -4.251708    1.596947    1.025932
 H   -4.035141    1.671035   -0.728792
 H   -5.612623    1.184872   -0.051012
 H   -1.315254   -3.543735    0.004936
 H   -4.830456   -1.001214    0.087990
