69 
6q9o_ligand_dft.xyz
 C   10.755118    4.230850   15.170544
 C   10.380963    4.051057   13.840777
 C   13.998424    5.197986   10.718032
 C   13.510561    4.517730    9.610894
 C   12.277062    4.877302    9.078706
 C   11.533556    5.899271    9.648605
 C   13.852799    6.972463   12.510865
 C   15.282385    7.457019   12.255267
 C   16.644818    9.508964   11.737156
 C   16.272251   10.990197   11.628298
 C   10.634718    7.589587   12.559998
 C   11.060771    8.880451   10.799028
 C   10.099430    8.849321   12.711046
 C    9.308553    9.351591   13.826641
 C   11.636371    9.328839    9.488607
 C   10.830825   10.498912    8.907100
 C   11.437762   10.985864    7.589464
 C   12.908019   11.377383    7.759774
 F   10.802195    3.184955   15.991448
 C   10.328508    5.146683   12.989212
 C   10.665035    6.422345   13.453980
 C   11.045642    6.579814   14.792660
 C   11.081358    5.489940   15.651649
 N   11.251031    7.619847   11.319953
 N   10.370869    9.632881   11.620084
 N    8.511849    8.600526   14.613562
 N    7.946771    9.385985   15.544392
 N    8.389343   10.572920   15.317433
 N    9.237054   10.593819   14.263471
 C   13.721011   10.217543    8.339076
 C   13.119831    9.714768    9.652728
 C   12.044697    6.575834   10.754261
 C   13.285873    6.245743   11.308850
Cl   11.645810    4.031237    7.690856
 O   16.212737    6.664695   12.180134
 N   15.407382    8.797164   12.108396
 C   17.705795    9.311979   12.826636
 C   17.153582    8.997691   10.383064
Cl    9.975685    2.467275   13.263783
 H   14.967185    4.937260   11.130548
 H   14.082386    3.712473    9.163548
 H   10.562103    6.172443    9.250861
 H   13.201391    7.799808   12.801787
 H   13.898188    6.282574   13.360036
 H   15.880777   11.371343   12.578596
 H   17.156715   11.578635   11.368293
 H   15.519218   11.152971   10.847918
 H   11.591217    8.490191    8.780281
 H   10.815318   11.313856    9.640072
 H    9.788988   10.193306    8.763396
 H   10.860326   11.836106    7.210335
 H   11.360885   10.190535    6.834224
 H   13.332064   11.694069    6.800376
 H   12.975471   12.239494    8.437946
 H   10.024245    4.996083   11.959521
 H   11.323528    7.562809   15.159648
 H   11.373132    5.595571   16.690437
 H    8.306549    7.613256   14.581113
 H   13.744684    9.389924    7.616517
 H   14.761947   10.523028    8.499876
 H   13.693759    8.856908   10.021008
 H   13.182165   10.505539   10.414988
 H   14.565979    9.351337   12.159058
 H   17.341159    9.687372   13.788559
 H   17.951944    8.253443   12.932648
 H   18.616296    9.861189   12.564316
 H   17.405118    7.936861   10.442983
 H   16.388736    9.134359    9.610589
 H   18.048086    9.554829   10.085096
