69 
6q9o_ligand_ani.xyz
 C   10.956370    4.351341   15.251028
 C   10.632168    4.111335   13.920201
 C   14.054393    5.284291   10.760295
 C   13.648041    4.684511    9.573186
 C   12.468139    5.109333    8.978314
 C   11.700689    6.113587    9.552386
 C   13.818836    6.903598   12.668809
 C   15.254038    7.385046   12.502116
 C   16.636619    9.289604   11.645010
 C   16.297062   10.698037   11.158797
 C   10.637239    7.628198   12.561186
 C   10.972293    8.929184   10.804617
 C    9.921435    8.815436   12.660207
 C    8.972563    9.241840   13.670465
 C   11.535930    9.437658    9.516473
 C   10.885558   10.781985    9.184789
 C   11.409639   11.349407    7.866777
 C   12.936349   11.474268    7.879480
 F   11.053313    3.329384   16.105706
 C   10.540853    5.172820   13.034257
 C   10.748641    6.487667   13.472134
 C   11.079312    6.699832   14.814139
 C   11.185172    5.639095   15.703663
 N   11.293302    7.703377   11.337842
 N   10.151689    9.596089   11.574760
 N    8.484088    8.508499   14.695839
 N    7.610203    9.249875   15.387442
 N    7.572341   10.393028   14.801800
 N    8.399125   10.424799   13.733753
 C   13.595715   10.133243    8.214588
 C   13.068327    9.578644    9.538119
 C   12.117229    6.694512   10.747310
 C   13.304897    6.286386   11.370579
Cl   11.943664    4.377040    7.489244
 O   16.217217    6.661709   12.714858
 N   15.366888    8.663750   12.047988
 C   17.587842    9.363512   12.842997
 C   17.285396    8.491145   10.507277
Cl   10.356727    2.490239   13.381186
 H   14.983105    4.975710   11.233420
 H   14.238978    3.900064    9.111317
 H   10.776976    6.441321    9.088477
 H   13.169942    7.720811   12.995910
 H   13.827033    6.145998   13.457687
 H   15.770261   11.259569   11.938284
 H   17.207719   11.246533   10.894432
 H   15.663768   10.662569   10.265601
 H   11.284731    8.723623    8.717713
 H   11.093136   11.474454   10.011390
 H    9.797507   10.661667    9.162661
 H   10.946051   12.322176    7.663025
 H   11.106846   10.682081    7.046030
 H   13.299425   11.855855    6.917526
 H   13.227732   12.212962    8.640899
 H   10.312688    4.976491   11.990831
 H   11.263417    7.710061   15.172465
 H   11.441937    5.792957   16.745071
 H    8.680949    7.559709   14.984712
 H   13.384986    9.409052    7.415422
 H   14.687850   10.236774    8.257252
 H   13.534869    8.613971    9.764865
 H   13.327069   10.275906   10.350298
 H   14.516294    9.161856   11.824241
 H   17.130379    9.935473   13.657633
 H   17.819230    8.360821   13.207627
 H   18.520456    9.860394   12.550287
 H   17.521900    7.477072   10.837148
 H   16.604036    8.431164    9.649658
 H   18.207427    8.985604   10.179501
