65 
6q9w_ligand_ani.xyz
 C    4.029699   -0.569496    0.120602
 C    4.899560   -1.644028    0.171094
 C   -1.641686    0.917941    0.290929
 C   -2.596041    1.363167   -0.624840
 C   -3.140941    2.639770   -0.539547
 C   -2.715654    3.480859    0.483024
 C   -1.764041    3.062726    1.406431
 C   -1.230302    1.782273    1.301733
 C   -0.370939   -1.914376    2.013611
 C   -1.070008   -0.495565    0.196823
 C    0.421056   -0.595807    0.276895
 C    0.815475   -1.407717    1.300792
 C    2.601334   -0.771967    0.379291
 C    1.640594    0.409305   -1.687963
 C    0.912055   -0.441102   -2.727994
 C    1.118021    1.836927   -1.654974
 C   -2.808436   -1.748263    1.690082
 N    6.209761   -1.547280   -0.065091
 C    6.662810   -0.326616   -0.310704
 N    5.954371    0.809825   -0.318207
 C    4.665078    0.683270   -0.093370
 O    3.904445    1.778916   -0.039925
 C    4.559099    3.029081   -0.262745
 O    7.957628   -0.157056   -0.569723
 C    8.776123   -1.324901   -0.590710
Cl   -3.385853    5.082924    0.610255
 N   -1.442283   -1.365503    1.330867
 N    1.570627   -0.190682   -0.350355
 N    2.169242   -1.541584    1.353817
 O   -0.472280   -2.644412    2.982213
 C   -3.659087   -2.082713    0.469159
 C   -3.468730   -3.308422   -0.170464
 C   -4.211338   -3.648577   -1.296430
 C   -5.155329   -2.768009   -1.812765
 C   -5.336484   -1.546874   -1.177358
 C   -4.608681   -1.198005   -0.044470
Cl   -6.500912   -0.415704   -1.821427
 C   -3.452070   -0.727532    2.624945
 H    4.516192   -2.637712    0.399499
 H   -2.923596    0.696526   -1.419610
 H   -3.886157    2.979513   -1.252493
 H   -1.445166    3.734101    2.196994
 H   -0.486318    1.450217    2.023926
 H   -1.450357   -0.950287   -0.727701
 H    2.698161    0.425516   -1.948457
 H    1.288858   -1.468319   -2.739781
 H    1.063143   -0.008969   -3.723693
 H   -0.166895   -0.463664   -2.537356
 H    1.695098    2.429762   -0.942116
 H    1.221393    2.286859   -2.648650
 H    0.060297    1.861112   -1.370575
 H   -2.676926   -2.677914    2.253900
 H    5.013460    3.050135   -1.257494
 H    3.777632    3.785586   -0.175765
 H    5.340921    3.195088    0.483876
 H    8.441225   -2.024379   -1.361502
 H    8.761056   -1.832167    0.377499
 H    9.778886   -0.961772   -0.816299
 H   -2.730272   -4.005475    0.221922
 H   -4.052395   -4.610186   -1.777919
 H   -5.739278   -3.017755   -2.693075
 H   -4.774655   -0.225734    0.412302
 H   -3.432914    0.275699    2.188204
 H   -2.904219   -0.701905    3.571444
 H   -4.489362   -1.011723    2.828647
