59 
6qas_ligand_ani.xyz
 C    0.265035    0.865288   -2.570178
 C    1.375923    1.576619   -1.828313
 O    1.147531    2.399471   -0.945939
 N    2.641014    1.248407   -2.199432
 C    3.817787    1.844235   -1.593019
 C    4.664083    0.732962   -0.978457
 O    5.440842    0.092676   -1.664094
 N    4.497012    0.485275    0.373067
 C    4.783433   -0.904784    0.830086
 C    4.747232   -0.692398    2.358495
 C    3.618573    0.369443    2.521760
 C    3.176029    0.606000    1.061071
 C    2.483637   -0.650101    0.580318
 C    3.500755   -1.605153    0.430991
 C    3.182370   -2.895978    0.042562
 C    1.843286   -3.213026   -0.159373
 C    0.822555   -2.261431    0.015647
 C    1.149078   -0.950585    0.384838
 N   -0.493450   -2.702507   -0.183215
 C   -1.693982   -2.048255   -0.131665
 N   -2.762833   -2.862163   -0.221398
 C   -3.946006   -2.263624   -0.194855
 C   -4.108095   -0.893469   -0.095495
 C   -2.922451   -0.128310   -0.015547
 N   -1.723726   -0.719913   -0.024299
 N   -2.974460    1.222039    0.051045
 C   -1.823426    2.008406    0.405454
 C   -2.037234    3.521242    0.507836
 C   -1.097168    3.532612    1.735694
 C   -1.329696    2.010980    1.875196
 C   -5.460366   -0.267351   -0.068017
 F   -6.439406   -1.182999   -0.111689
 F   -5.655104    0.473489    1.049667
 F   -5.654308    0.578828   -1.103382
 H   -0.413673    1.617777   -2.983803
 H   -0.305638    0.255449   -1.860445
 H    0.625984    0.230224   -3.384888
 H    2.788849    0.463279   -2.816034
 H    3.478420    2.572032   -0.854587
 H    4.420709    2.351799   -2.353306
 H    5.705230   -1.305426    0.408231
 H    4.535153   -1.622218    2.891785
 H    5.708951   -0.305282    2.704817
 H    2.790368    0.015696    3.139760
 H    4.003652    1.297788    2.950416
 H    2.651317    1.539600    0.863243
 H    3.954481   -3.650977   -0.089818
 H    1.577016   -4.223464   -0.461947
 H    0.369669   -0.209747    0.514562
 H   -0.612301   -3.697411   -0.304976
 H   -4.818535   -2.910008   -0.258335
 H   -3.874438    1.666281    0.132092
 H   -0.989778    1.761949   -0.260019
 H   -3.073535    3.736252    0.797944
 H   -1.773897    4.132364   -0.359508
 H   -1.383613    4.163483    2.580088
 H   -0.065843    3.758884    1.448524
 H   -2.147843    1.774718    2.561604
 H   -0.471361    1.368017    2.102943
