88 
6qdx_ligand_ani.xyz
 C   -4.263470    1.110230    0.327900
 C    4.063736    1.296779   -0.488794
 C   -6.828125   -0.920127   -1.190151
 C   -2.237436    2.541322   -0.011234
 C    1.787221    4.619935   -1.675756
 C   -1.262562    2.565905   -0.996389
 C   -2.724319    1.184870   -1.668486
 C   -1.188909    4.038601    1.222935
 C   -0.184917    3.444993   -0.763038
 C    3.197221    4.226643   -1.238963
 C    3.215134    3.543836    0.130471
 N   -3.191230    1.659377   -0.465061
 N   -1.572140    1.693417   -2.027913
 C   -3.896828   -0.217789    1.079375
 N   -2.251556    3.247648    1.125422
 C   -6.046269   -0.309908   -0.042341
 C    2.425598    1.498613    1.371659
 C    1.159231    0.629901    1.280556
 C    1.084662   -0.453130    2.366657
 C    1.159076    0.079393    3.795222
 C    3.678194   -0.098304   -0.919418
 C   -4.983563   -1.222749    0.616500
 C    4.677488   -0.815431   -1.808074
 C    4.220148   -2.265856   -1.641481
 C    3.699504   -2.308591   -0.184697
 C    1.236306   -2.669810   -0.707728
 C    0.237386   -3.329857    0.005321
 C    2.048440   -3.745935    1.023747
 C   -0.282682   -1.669002   -1.983117
 C   -1.089535   -3.075618   -0.354971
 N    1.018732   -1.848160   -1.735610
 N   -1.338780   -2.178465   -1.335044
 N   -2.096459   -3.688637    0.315778
 N   -0.167451    4.172346    0.362780
 N    0.858402    3.491407   -1.643434
 N    2.885441    2.077868    0.053654
 N   -0.181096   -1.256652    2.329257
 N    2.428476   -2.996420   -0.070445
 N    0.759693   -3.962997    1.118705
 O   -5.340548    0.824464   -0.535448
 O   -5.916375   -1.225996   -2.246973
 O   -4.429933   -2.194965   -0.249971
 O   -2.592195   -0.657517    0.854598
 O    0.264311   -0.083632    4.594789
 O    2.296943    0.713746    4.099628
 O    3.594892   -0.962165    0.231038
 O    5.957934   -0.622395   -1.260936
 O    5.316750   -3.123829   -1.878639
 H   -4.561328    1.870998    1.061914
 H    4.840774    1.233381    0.278259
 H    4.487756    1.846667   -1.332744
 H   -7.337595   -1.826408   -0.837539
 H   -7.581494   -0.198583   -1.533401
 H    1.808835    5.036648   -2.688132
 H    1.402704    5.377916   -0.989565
 H   -3.295141    0.460609   -2.236326
 H   -1.137235    4.657766    2.117398
 H    3.641325    3.575882   -2.000765
 H    3.814777    5.131771   -1.199475
 H    4.189689    3.660162    0.621827
 H    2.461834    4.009656    0.770257
 H   -4.012119   -0.025132    2.153980
 H   -6.761296    0.006062    0.732259
 H    2.255733    2.327125    2.061252
 H    3.252499    0.911782    1.767348
 H    1.121755    0.118645    0.311962
 H    0.261929    1.259992    1.337410
 H    1.927791   -1.131137    2.226270
 H    2.698620   -0.088722   -1.413194
 H   -5.416195   -1.758756    1.468343
 H    4.637637   -0.488812   -2.859057
 H    3.385246   -2.456765   -2.324343
 H    4.392139   -2.833064    0.480632
 H    2.783913   -4.088286    1.738989
 H   -0.514241   -0.993751   -2.799025
 H   -3.030460   -3.297582    0.227067
 H   -1.836387   -4.161278    1.170475
 H    0.665791    3.021640   -2.520414
 H    2.107334    2.009397   -0.631762
 H   -0.598927   -1.132511    3.275543
 H   -0.869141   -0.933415    1.620431
 H    0.051883   -2.259752    2.194393
 H   -6.393824   -1.722769   -2.921295
 H   -4.669973   -1.955332   -1.166867
 H   -2.548771   -1.011600   -0.059429
 H    2.216799    0.984204    5.030524
 H    6.484210   -1.399036   -1.500617
 H    4.990308   -4.027901   -1.968128
