41 
6qef_ligand_xtb.xyz
 C    3.167839   -0.808113   -0.813922
 C    1.818587   -1.363410   -1.192529
 O   -0.245901    0.546877   -0.969597
 C   -2.298237   -0.793510    0.766062
 C   -2.426662    1.528872    0.783821
 C   -1.233819    1.147575    1.663169
 C   -4.375694    0.215226   -0.060464
 C   -5.118337   -0.963641   -0.049807
 C   -6.387976   -0.988598   -0.595425
 C   -6.938937    0.152389   -1.153070
 C    3.291232    0.554504   -0.568140
 C    4.513331    1.079592   -0.183705
 C    5.629666    0.268627   -0.042893
 C    5.480815   -1.082061   -0.295567
 N    0.872898   -1.222539   -0.107870
 C   -0.053312   -0.254209   -0.076608
 C   -0.916939   -0.274839    1.200262
 N   -3.086009    0.261062    0.494298
 O   -2.544017   -1.982766    0.752830
 O   -0.378187   -1.119840    2.182629
 C   -6.202465    1.323746   -1.167359
 C   -4.929644    1.361256   -0.627509
 C    4.270853   -1.637224   -0.672350
Cl    4.656810    2.769638    0.122572
 F    6.551907   -1.886070   -0.165032
 H    1.897404   -2.418849   -1.464091
 H    1.404637   -0.799762   -2.034227
 H   -3.121603    2.197862    1.296275
 H   -2.079055    1.992320   -0.143838
 H   -1.504652    1.118547    2.719178
 H   -0.393652    1.824858    1.527823
 H   -4.697421   -1.857877    0.377122
 H   -6.950760   -1.909895   -0.580310
 H   -7.931644    0.128396   -1.576067
 H    2.433299    1.198161   -0.683438
 H    6.585882    0.668374    0.251671
 H    1.021634   -1.747148    0.743667
 H   -0.919972   -1.927675    2.179363
 H   -6.617567    2.219336   -1.605468
 H   -4.369658    2.281346   -0.666387
 H    4.205006   -2.698116   -0.855400
