41 
6qef_ligand_ani.xyz
 C    3.334477   -0.615987   -0.859037
 C    1.942808   -0.929122   -1.362516
 O   -0.503461    0.509537   -1.314131
 C   -2.400561   -0.759359    0.586777
 C   -2.581907    1.578552    0.611004
 C   -1.339025    1.199891    1.427140
 C   -4.614519    0.196634    0.006427
 C   -5.332937   -0.996904    0.141362
 C   -6.670659   -1.034863   -0.233854
 C   -7.310248    0.088776   -0.748579
 C    3.684912    0.706925   -0.587787
 C    4.949393    0.991642   -0.086928
 C    5.877598   -0.010917    0.164874
 C    5.496657   -1.314868   -0.105161
 N    0.978616   -0.879328   -0.278933
 C   -0.158552   -0.158156   -0.347494
 C   -1.013786   -0.217057    0.936207
 N   -3.259678    0.290342    0.401095
 O   -2.636201   -1.955386    0.555462
 O   -0.414865   -1.036576    1.911394
 C   -6.592175    1.270337   -0.889581
 C   -5.255713    1.327873   -0.514288
 C    4.247435   -1.638652   -0.610681
Cl    5.385518    2.642831    0.238387
 F    6.374535   -2.303182    0.132134
 H    1.923004   -1.918828   -1.836222
 H    1.618830   -0.196878   -2.107796
 H   -3.235483    2.271005    1.149023
 H   -2.293059    2.015624   -0.350040
 H   -1.573367    1.143297    2.494230
 H   -0.516165    1.903291    1.280961
 H   -4.848342   -1.884941    0.526708
 H   -7.218888   -1.967567   -0.122517
 H   -8.356512    0.040737   -1.037289
 H    2.978499    1.513032   -0.764668
 H    6.864679    0.205199    0.559081
 H    1.196542   -1.293943    0.615715
 H   -0.867149   -1.893568    1.831345
 H   -7.071979    2.160418   -1.289746
 H   -4.707207    2.257590   -0.631178
 H    4.006434   -2.680127   -0.803624
