54 
6qg7_ligand_dft.xyz
 C   -0.205763    1.556711    0.667591
 C    1.177276    1.348196    0.591345
 C    1.964473    2.525460    0.636365
 N    1.362523    3.717644    0.707900
 N   -0.835976    2.739848    0.746276
 C   -7.263971    0.129058   -1.927639
 C   -6.396689   -0.693215   -0.982429
 C   -4.910467   -0.423238   -1.203170
 O   -4.532501    0.376748   -2.045241
 N   -4.019853   -1.134651   -0.433673
 C   -2.607698   -0.798477   -0.513279
 C   -4.370697   -1.914401    0.744442
 C   -4.027347   -1.137870    2.018822
 C   -2.553328   -0.722965    2.014142
 C   -2.198420    0.019587    0.721105
 N   -0.782321    0.330935    0.672167
 N    0.145308   -0.656873    0.608674
 C    0.020852    3.748793    0.754400
 N    3.316038    2.512428    0.642561
 C    1.328980   -0.073087    0.553353
 C    2.563238   -0.885304    0.530541
 C    3.544085   -0.720787   -0.500109
 C    3.361835    0.159483   -1.602820
 C    4.333540    0.301070   -2.560528
 C    5.537331   -0.434689   -2.475321
 C    5.732004   -1.310899   -1.439929
 C    4.745146   -1.484745   -0.434334
 C    4.922951   -2.415025    0.622257
 C    3.950553   -2.586009    1.571109
 C    2.770365   -1.812568    1.526014
 H   -7.086472    1.197679   -1.785555
 H   -7.033611   -0.103578   -2.970053
 H   -8.323280   -0.078352   -1.746994
 H   -6.653850   -0.463801    0.059873
 H   -6.592536   -1.764296   -1.118757
 H   -2.015456   -1.720677   -0.549207
 H   -2.440309   -0.229677   -1.427002
 H   -3.796925   -2.850917    0.715880
 H   -5.426030   -2.184902    0.719529
 H   -4.245595   -1.750091    2.900930
 H   -4.666939   -0.246954    2.072093
 H   -2.323401   -0.088303    2.876450
 H   -1.915975   -1.613723    2.083279
 H   -2.709256    0.987030    0.687048
 H   -0.414786    4.743860    0.810209
 H    3.776776    3.404465    0.548188
 H    3.823018    1.681572    0.380328
 H    2.432592    0.713592   -1.690201
 H    4.173080    0.976579   -3.395276
 H    6.299591   -0.312428   -3.238750
 H    6.648088   -1.892430   -1.375508
 H    5.842252   -2.993544    0.660785
 H    4.086247   -3.306556    2.371751
 H    2.013246   -1.934319    2.293985
