65 
6qge_ligand_ani.xyz
 C   -1.765506   -2.180914    1.052070
 C   -3.378602   -1.470057   -1.234791
 C   -3.410693    1.378297   -1.750341
 C   -3.310287    3.420233   -0.300327
 C    1.373883    2.201175    0.980081
 C    1.298682    1.050452    1.765917
 C    2.457802    0.578867    2.355487
 C    3.748857    2.325590    1.380910
 C    3.785441   -0.047300   -1.060292
 C    3.675663   -1.413716   -0.802618
 C    4.818047   -2.213175   -0.749417
 C    6.067245   -1.645342   -0.960187
 C    6.197887   -0.284740   -1.214216
 C    5.047909    0.489458   -1.250688
 C    2.349780   -1.996395   -0.574386
 C    1.109861   -1.470972   -0.850242
 C   -3.289031   -2.360156    0.983691
 C   -1.219858   -2.436072   -0.363288
 C   -1.845656   -1.431850   -1.327854
 C   -4.005628   -2.241021    2.316756
 C   -4.013535    2.078080   -0.524044
 C   -1.163241    2.519797    0.716604
 F    5.168894    1.813907   -1.472186
 N    2.165614   -3.213761    0.012848
 N    0.896242   -3.444486    0.121631
 N    0.239737   -2.401037   -0.391394
 N   -1.867074    3.285171   -0.158025
 N   -1.046465    3.956993   -0.961960
 N    0.171029    3.658263   -0.637957
 O   -3.831059   -1.373150    0.104501
 O   -1.410260   -0.868586    1.441500
 O   -3.703154   -0.977186    2.903239
 O   -1.423155   -1.744393   -2.630212
 O   -3.863401    1.352608    0.673932
 S   -4.168958   -0.189215   -2.266109
 C    0.152767    2.764951    0.391635
 C    3.688065    1.195119    2.189862
 C    2.604178    2.824871    0.777304
 F    2.393292   -0.531344    3.120518
 H   -1.332438   -2.917228    1.744696
 H   -3.735755   -2.415389   -1.666466
 H   -3.524809    2.041702   -2.614822
 H   -2.338214    1.231221   -1.595162
 H   -3.717884    3.884431    0.602091
 H   -3.472133    4.091462   -1.147751
 H    0.364304    0.513136    1.922834
 H    4.704699    2.809345    1.196800
 H    2.919415    0.608925   -1.085541
 H    4.713259   -3.273594   -0.536963
 H    6.955915   -2.269644   -0.921538
 H    7.166908    0.177097   -1.375304
 H    0.781141   -0.574057   -1.358037
 H   -3.510124   -3.358648    0.577062
 H   -1.490015   -3.453419   -0.669394
 H   -1.498187   -0.435860   -1.014848
 H   -5.085828   -2.340578    2.153974
 H   -3.666665   -3.060209    2.965638
 H   -5.078546    2.281144   -0.711662
 H   -1.655542    1.890146    1.447409
 H   -2.119904   -0.548589    2.030526
 H   -3.898572   -1.011845    3.845869
 H   -1.845556   -1.110479   -3.228458
 H   -4.114899    0.427084    0.522943
 H    4.567338    0.776906    2.669257
 H    2.646223    3.707890    0.144194
