65 
6qgf_ligand_ani.xyz
 C   -6.707644    0.884621   -0.486186
 C   -6.902366    1.286225   -1.809363
 C   -9.291370    1.348143   -1.455541
 C   -9.072550    0.952659   -0.144000
 C   -5.356506    0.630217    0.023911
 C   -4.146759    0.545904   -0.630041
 C   -1.121550    0.203351    1.602442
 C   -1.812808    0.072765    0.228765
 C   -1.490036   -1.280374   -0.431394
 C    2.309806   -2.805910   -1.177950
 C    5.555168    1.627894   -0.231394
 C    6.499409    3.773434   -0.690450
 C    5.003308    3.526719    1.150921
 C   -7.805941    0.720056    0.360132
 C   -8.188244    1.515141   -2.285766
 C    0.375578   -0.040759    1.411517
 C    0.031539   -1.447139   -0.470413
 C    1.186784   -0.020694    2.699409
 C    3.075858   -3.444218   -0.011261
 C    4.585383   -3.276412   -0.216166
 C    5.419489    0.198762   -0.534855
 C    4.916121   -0.809736    0.254516
 C    6.378177    2.434944   -1.017936
 C    5.828072    4.340720    0.382651
 C    4.861523    2.175547    0.852225
 F  -10.132734    0.791132    0.665793
 F    7.295265    4.555771   -1.438838
 N   -5.131087    0.416278    1.350285
 N   -3.871345    0.225472    1.537348
 N   -3.253690    0.300948    0.356881
 N    5.001261   -1.916892   -0.522699
 N    5.522869   -1.618131   -1.709343
 N    5.786428   -0.351380   -1.728296
 O    0.548177   -1.332432    0.836852
 O   -1.592122   -0.749413    2.521130
 O    2.557623   -0.250449    2.436770
 O   -2.025767   -1.247945   -1.734791
 O    2.731089   -2.881335    1.242872
 S    0.511892   -3.064650   -1.151932
 H   -6.049822    1.426897   -2.467786
 H  -10.305351    1.518561   -1.802058
 H   -3.832875    0.593780   -1.664387
 H   -1.273876    1.230836    1.973372
 H   -1.440155    0.854699   -0.439953
 H   -1.925019   -2.088955    0.170773
 H    2.691908   -3.212195   -2.119362
 H    2.495453   -1.726597   -1.192680
 H    4.466604    3.952974    1.993435
 H   -7.668360    0.417460    1.394205
 H   -8.334627    1.826985   -3.315650
 H    0.792492    0.709064    0.718622
 H    0.468478   -0.668295   -1.115683
 H    0.779701   -0.763141    3.396547
 H    1.106940    0.968618    3.167026
 H    2.873608   -4.525050    0.007824
 H    5.099428   -3.609936    0.688540
 H    4.911370   -3.889330   -1.059804
 H    4.499213   -0.823442    1.252997
 H    6.912427    2.026239   -1.870792
 H    5.956940    5.396599    0.597276
 H    4.206336    1.548151    1.454237
 H   -2.534441   -0.552129    2.658334
 H    2.666803   -1.187707    2.188595
 H   -1.897330   -2.125785   -2.120157
 H    1.765388   -2.758666    1.240312
