65 
6qgf_ligand_dft.xyz
 C   -5.174478   -0.167099   -0.293851
 C   -5.355819    1.182440   -0.615014
 C   -7.732102    0.822802   -0.872141
 C   -7.530158   -0.509376   -0.543060
 C   -3.837076   -0.688723    0.010112
 C   -2.603911   -0.120567   -0.225644
 C    0.291504   -1.362439    1.680111
 C   -0.275290   -0.892809    0.325816
 C    0.400441   -1.599173   -0.856992
 C    4.180051   -0.948022   -2.276489
 C    1.504239    2.517862    0.565130
 C   -0.853849    2.899488    0.387903
 C    0.086450    2.437463    2.525634
 C   -6.277632   -1.022711   -0.254595
 C   -6.626280    1.667085   -0.904048
 C    1.790664   -1.097018    1.625067
 C    1.914801   -1.373271   -0.704673
 C    2.590638   -1.432403    2.869150
 C    5.314939   -0.856848   -1.216271
 C    5.791129    0.597668   -1.056733
 C    2.791710    2.279248   -0.098737
 C    3.855839    1.496183    0.300426
 C    0.384535    2.809137   -0.222058
 C   -1.037907    2.704606    1.748351
 C    1.348487    2.349210    1.945624
 F   -8.588857   -1.333742   -0.506219
 F   -1.932655    3.140089   -0.385374
 N   -3.635466   -1.885441    0.627812
 N   -2.362127   -2.072727    0.783986
 N   -1.722938   -1.005976    0.276032
 N    4.682598    1.489772   -0.768067
 N    4.166260    2.226100   -1.774230
 N    3.032759    2.702779   -1.372438
 O    2.360128   -1.836090    0.547466
 O    0.088290   -2.723866    1.932323
 O    3.861241   -0.808495    2.835951
 O   -0.089938   -0.987449   -2.021889
 O    4.969022   -1.302707    0.074126
 S    2.887448   -2.206305   -1.999103
 H   -4.506805    1.859804   -0.621117
 H   -8.732822    1.178305   -1.090621
 H   -2.292642    0.796802   -0.697400
 H   -0.151469   -0.725208    2.463379
 H   -0.067771    0.178010    0.227343
 H    0.175656   -2.673331   -0.815647
 H    4.623520   -1.194370   -3.245129
 H    3.675898    0.012379   -2.402915
 H   -0.026161    2.294523    3.595617
 H   -6.157622   -2.070205   -0.002815
 H   -6.760577    2.715918   -1.149459
 H    1.926725   -0.026425    1.434784
 H    2.101089   -0.293699   -0.807485
 H    2.666711   -2.520826    2.979218
 H    2.075730   -1.035207    3.748265
 H    6.174192   -1.440084   -1.576798
 H    6.521308    0.645627   -0.245794
 H    6.248582    0.966906   -1.976704
 H    4.053764    0.929009    1.198638
 H    0.481682    2.937857   -1.294018
 H   -2.031733    2.767758    2.176667
 H    2.214519    2.133148    2.564998
 H   -0.864065   -2.895250    1.822178
 H    4.354397   -1.151180    2.074913
 H    0.261262   -1.464088   -2.785210
 H    4.247988   -1.951507    0.021491
