77 
6qgk_ligand_ani.xyz
 C    1.757991   -3.897703    0.359291
 C    0.515405   -3.274657   -0.270609
 C   -0.770268   -4.018352    0.099831
 C   -2.018967   -3.572262   -0.667257
 N   -2.364689   -2.163764   -0.472772
 C   -3.073530   -1.803203    0.750428
 C   -4.589216   -1.950231    0.629066
 C   -5.311991   -1.669536    1.945416
 C   -6.826313   -1.816273    1.823718
 C   -1.984833   -1.273558   -1.432391
 O   -1.492228   -1.626879   -2.501348
 C   -2.103450    0.195759   -1.090169
 N   -1.092128    0.799435   -0.474949
 C   -3.132842    1.097643   -1.399127
 C   -2.714839    2.314421   -0.904288
 C   -3.382698    3.649692   -0.983129
 N   -1.494245    2.097759   -0.326102
 C   -0.693961    2.997165    0.424643
 C   -1.283947    3.831713    1.377878
 C   -0.496657    4.643694    2.180790
 C    0.888382    4.633212    2.046064
 C    1.472007    3.802715    1.098183
 C    0.698739    2.989694    0.267010
 C    1.385525    2.235644   -0.843041
 O    1.123379    2.457906   -2.020764
 N    2.327880    1.302450   -0.471286
 C    2.195726    0.618382    0.817653
 C    3.243867   -0.440904    1.072862
 C    3.111768   -1.262785    2.194788
 C    4.047742   -2.252029    2.472999
 C    5.140188   -2.425573    1.624609
 C    5.272451   -1.615706    0.503921
 C    4.329524   -0.624417    0.213828
 C    4.439957    0.243417   -1.018023
 C    3.067732    0.629480   -1.552350
 C    2.327047   -0.585111   -2.156320
 N    0.938654   -0.245226   -2.541103
 H    2.664949   -3.352008    0.077702
 H    1.880431   -4.939538    0.041781
 H    1.692509   -3.883520    1.453978
 H    0.446503   -2.223707    0.047397
 H    0.623036   -3.262241   -1.365644
 H   -0.629550   -5.090671   -0.093728
 H   -0.948648   -3.926443    1.180864
 H   -2.875296   -4.182381   -0.351544
 H   -1.874797   -3.710812   -1.741568
 H   -2.703773   -2.454758    1.554562
 H   -2.805351   -0.775788    1.018718
 H   -4.964004   -1.269729   -0.146977
 H   -4.828217   -2.969432    0.293894
 H   -4.937932   -2.354327    2.719217
 H   -5.065308   -0.654358    2.285145
 H   -7.327580   -1.613092    2.775738
 H   -7.230027   -1.122024    1.077498
 H   -7.099003   -2.831269    1.511977
 H   -4.050563    0.881831   -1.926071
 H   -4.105326    3.649844   -1.802783
 H   -3.937625    3.876129   -0.065514
 H   -2.663735    4.457931   -1.149557
 H   -2.361089    3.828036    1.508175
 H   -0.970434    5.284168    2.919056
 H    1.509230    5.259883    2.678192
 H    2.553112    3.773564    0.984347
 H    1.192352    0.166750    0.888021
 H    2.235578    1.366635    1.617341
 H    2.253628   -1.141127    2.853277
 H    3.916119   -2.898594    3.337554
 H    5.877643   -3.196845    1.830578
 H    6.117440   -1.759242   -0.166342
 H    4.980152    1.165836   -0.773372
 H    5.011436   -0.271504   -1.799732
 H    3.183008    1.384198   -2.336125
 H    2.876666   -0.943641   -3.027477
 H    2.281899   -1.398080   -1.426118
 H    0.352293   -0.199182   -1.686095
 H    0.908979    0.694901   -2.976941
 H    0.500561   -0.950172   -3.156691
