35 
6qh9_ligand_ani.xyz
 C    1.778764    1.257639   -0.348465
 C   -1.327161   -0.731000   -0.077992
 C   -2.768537   -0.343002   -0.465666
 C   -5.184107   -0.957650   -0.192168
 N    5.897698    1.044288    0.677171
 C    5.302540   -0.062434    0.090198
 N    6.034230   -1.006043   -0.362566
 C    3.812653    0.001368   -0.001097
 C    3.158575    1.212754   -0.238280
 C    1.015747    0.092266   -0.206709
 N   -0.373454    0.208807   -0.356366
 O   -1.095300   -1.829417    0.400121
 C   -3.748943   -1.402117    0.038850
 C   -5.446386    0.310631    0.605357
 N   -4.432926    1.310766    0.306533
 C   -3.153359    1.094373   -0.094751
 O   -2.370733    2.031639   -0.231550
 C    1.658594   -1.123329    0.042688
 C    3.043221   -1.154404    0.130998
 H    1.283538    2.208165   -0.537152
 H   -2.795976   -0.327622   -1.567763
 H   -5.887961   -1.741218    0.109456
 H   -5.350203   -0.765383   -1.259750
 H    5.391065    1.456848    1.448297
 H    6.878675    0.892920    0.874466
 H    5.461952   -1.725019   -0.803358
 H    3.746381    2.119998   -0.351806
 H   -0.727027    1.147292   -0.524490
 H   -3.536109   -2.348997   -0.463129
 H   -3.564289   -1.570318    1.105243
 H   -5.451510    0.079322    1.680868
 H   -6.424365    0.736852    0.361678
 H   -4.632073    2.275609    0.528533
 H    1.074514   -2.026159    0.162222
 H    3.533212   -2.105363    0.336943
