36 
6qhb_ligand_xtb.xyz
 C    2.162513    0.902934   -0.017661
 C   -3.454966   -1.387172    0.144940
 C   -3.696741    0.977001   -0.148245
 C   -2.324330    1.128128   -0.147937
 C   -5.757972   -0.443538   -0.029151
 C    6.032646   -1.952200    0.028672
 O    4.641449   -1.745709    0.038011
 C    4.175034   -0.448851    0.018880
 C    4.961351    0.686353    0.009976
 C    4.353851    1.935010   -0.012699
 C    2.983358    2.035608   -0.028184
 C    0.690188    1.180602   -0.045418
 O    0.276942    2.322266   -0.119464
 N   -0.110384    0.082491    0.024099
 C   -1.500461    0.015321    0.009705
 C   -2.084243   -1.244636    0.155863
 C   -4.283468   -0.277060   -0.001946
 N   -6.475197    0.593206    0.501022
 N   -6.394066   -1.418351   -0.543613
 C    2.770258   -0.352013    0.007923
 O    2.061620   -1.520844    0.021174
 H   -3.893267   -2.367814    0.269231
 H   -4.323971    1.844683   -0.289761
 H   -1.882210    2.102571   -0.268651
 H    6.491881   -1.531283   -0.870744
 H    6.505442   -1.523313    0.917273
 H    6.169335   -3.032498    0.032632
 H    6.036982    0.614262    0.020286
 H    4.966371    2.822776   -0.019670
 H    2.493183    2.996327   -0.050378
 H    0.354113   -0.813714    0.093621
 H   -1.451142   -2.112537    0.278516
 H   -7.463991    0.422573    0.586762
 H   -6.047854    1.152051    1.219325
 H   -5.803876   -2.107882   -0.997158
 H    2.704330   -2.246255    0.022096
