32 
6ql1_ligand_xtb.xyz
 F    1.485250   -1.871322   -1.425136
 C    1.287625   -0.679573   -0.869839
 C    2.299791   -0.050735   -0.165909
 S    3.919050   -0.796555    0.152868
 O    4.114065   -1.924798   -0.691666
 N    4.905858    0.425984   -0.386716
 O    4.018174   -0.938864    1.569530
 C    2.047072    1.190015    0.393633
 F    3.014696    1.810264    1.072872
 C    0.802940    1.796216    0.265719
 F    0.586159    2.986583    0.827432
 C    0.044501   -0.069084   -1.023340
 F   -0.883998   -0.679805   -1.762741
 C   -0.226108    1.165507   -0.434232
 S   -1.809795    1.939712   -0.571213
 C   -2.831838    0.584581   -0.064317
 N   -4.113190    0.722560   -0.326109
 C   -4.911391   -0.264474    0.069260
 C   -6.365558   -0.119438   -0.224317
 C   -4.390529   -1.381538    0.718742
 C   -3.020508   -1.416396    0.955435
 N   -2.242500   -0.409100    0.566480
 C   -2.344694   -2.561522    1.628314
 H    5.593694    0.101854   -1.045033
 H    5.301657    0.982726    0.352774
 H   -6.551382    0.852499   -0.670717
 H   -6.683390   -0.899135   -0.914735
 H   -6.946987   -0.221278    0.689976
 H   -5.029833   -2.191209    1.031168
 H   -3.009605   -3.041041    2.341694
 H   -2.055947   -3.296110    0.876524
 H   -1.442150   -2.218461    2.126639
