52 
6qln_ligand_dft.xyz
 C    5.332884   -0.081696    0.020996
 C    5.595129   -1.322614    0.608000
 C    6.884566   -1.824456    0.574766
 C    7.932748   -1.139010   -0.019237
 C    6.377073    0.627421   -0.581117
 C   -8.039889   -1.666761    1.159984
 C   -6.708035   -1.543119    0.465004
 C   -6.395807   -0.402682   -0.281150
 C   -5.162492   -0.270813   -0.907257
 C   -5.749324   -2.553189    0.562802
 C   -4.509048   -2.429955   -0.055730
 C   -4.208594   -1.284327   -0.790349
 C   -1.773385   -0.145276   -0.275500
 C   -1.730334    1.958041    0.782616
 C   -2.555947    3.235228    0.788193
 C   -0.242028    2.168277    0.506969
 C    0.418495    0.775161    0.461691
 C    2.790267   -0.089583    0.460983
 C    3.972644    0.471427    0.027911
 C    7.662320    0.097827   -0.597743
 C   -0.262201   -0.130255   -0.568205
 F    7.124132   -3.018280    1.141411
 N    1.857194    0.854487    0.223744
 N    3.692215    1.716517   -0.447991
 N    2.423395    1.940691   -0.331861
 O   -2.307590    1.148033   -0.234808
 O   -3.898606    2.948575    1.104448
 O   -0.121440    2.866820   -0.700818
 O    0.294744   -1.415107   -0.412848
 S   -2.620223   -1.090931   -1.578911
 H    4.818298   -1.904878    1.092209
 H    8.926711   -1.571995   -0.022344
 H    6.169091    1.589951   -1.034649
 H   -8.031538   -1.126075    2.113732
 H   -8.283135   -2.711621    1.373420
 H   -8.846824   -1.246155    0.552104
 H   -7.132324    0.391083   -0.377821
 H   -4.931896    0.613259   -1.493464
 H   -5.975110   -3.452994    1.129409
 H   -3.773054   -3.223606    0.029544
 H   -1.937038   -0.662136    0.683832
 H   -1.850734    1.457953    1.758207
 H   -2.180309    3.916876    1.556897
 H   -2.453604    3.724042   -0.188594
 H    0.198025    2.727886    1.347926
 H    0.296853    0.305212    1.445239
 H    2.529702   -1.050160    0.873368
 H    8.466777    0.653509   -1.069430
 H   -0.087686    0.283168   -1.570826
 H   -4.170543    2.245711    0.498294
 H    0.832195    2.991599   -0.847713
 H   -0.098222   -1.997520   -1.076278
