52 
6qlr_ligand_dft.xyz
 C    5.031159   -0.181364    0.129677
 C    5.253296   -1.465002    0.636862
 C    6.541183   -1.973283    0.631648
 C    7.625649   -1.260815    0.144426
 C   -8.375148   -1.638965    1.069557
 C   -7.019627   -1.498349    0.425490
 C   -6.695304   -0.353365   -0.308792
 C   -5.459477   -0.226550   -0.930603
 C   -6.067306   -2.514253    0.522950
 C   -4.824397   -2.396215   -0.091505
 C   -4.513735   -1.248370   -0.818163
 C   -2.072240   -0.134903   -0.275346
 C   -2.007960    1.961228    0.797153
 C   -2.813617    3.251088    0.801899
 C   -0.513409    2.149248    0.539136
 C    0.124127    0.745541    0.493448
 C    2.480626   -0.159113    0.518273
 C    3.678764    0.388780    0.113073
 C    7.368706    0.009480   -0.349864
 C    6.101053    0.566158   -0.369032
 C   -0.557874   -0.140894   -0.551514
 F    6.749708   -3.204639    1.117399
 F    8.394780    0.723813   -0.828948
 N    1.567482    0.802185    0.275527
 N    3.427224    1.643430   -0.352474
 N    2.160690    1.886218   -0.256514
 O   -2.586768    1.166406   -0.231348
 O   -4.163318    2.983408    1.104234
 O   -0.367890    2.851632   -0.663561
 O   -0.021510   -1.435041   -0.400612
 S   -2.918819   -1.058786   -1.594291
 H    4.449244   -2.075593    1.031615
 H    8.624996   -1.677419    0.148709
 H   -8.368177   -2.400942    1.854050
 H   -8.703947   -0.694733    1.514719
 H   -9.128173   -1.932206    0.328780
 H   -7.423501    0.449053   -0.396856
 H   -5.218363    0.662416   -1.505082
 H   -6.299199   -3.413386    1.088092
 H   -4.092216   -3.193170   -0.004127
 H   -2.254268   -0.655750    0.678484
 H   -2.146598    1.457652    1.768520
 H   -2.434840    3.922778    1.577758
 H   -2.694877    3.743555   -0.171214
 H   -0.073986    2.697207    1.387948
 H   -0.017792    0.271457    1.472238
 H    2.198484   -1.117999    0.920106
 H    5.945105    1.561401   -0.767131
 H   -0.366273    0.277952   -1.548723
 H   -4.440866    2.289053    0.490879
 H    0.588406    2.969773   -0.795570
 H   -0.421146   -2.007655   -1.068725
