52 
6qlr_ligand_xtb.xyz
 C    5.029311   -0.088765    0.122984
 C    5.344094   -1.344102    0.639394
 C    6.660338   -1.761514    0.627736
 C    7.684443   -0.981140    0.121811
 C   -8.373583   -0.874644    0.964653
 C   -7.011081   -1.034604    0.365828
 C   -6.518972   -0.076865   -0.516135
 C   -5.268948   -0.215031   -1.088640
 C   -6.220840   -2.137636    0.663230
 C   -4.963775   -2.283386    0.103174
 C   -4.493818   -1.316891   -0.767301
 C   -2.016927   -0.441338   -0.163612
 C   -2.093662    1.699388    0.796293
 C   -2.921534    2.984488    0.678017
 C   -0.596814    1.945475    0.535689
 C    0.119264    0.577494    0.564703
 C    2.496641   -0.184397    0.597536
 C    3.660914    0.393904    0.113775
 C    7.339641    0.259986   -0.386113
 C    6.038765    0.720308   -0.395790
 C   -0.519495   -0.349456   -0.483666
 F    6.960610   -2.974849    1.128802
 F    8.314144    1.040894   -0.885753
 N    1.531547    0.712955    0.318605
 N    3.318676    1.592249   -0.418711
 N    2.063222    1.767952   -0.298392
 O   -2.632555    0.806348   -0.159598
 O   -4.270741    2.746420    0.966208
 O   -0.468880    2.590361   -0.693398
 O    0.110707   -1.599140   -0.403529
 S   -2.846249   -1.449637   -1.445784
 H    4.584394   -1.993638    1.041654
 H    8.705202   -1.325241    0.122364
 H   -8.541176   -1.600933    1.755578
 H   -8.495912    0.126792    1.372895
 H   -9.136217   -1.017110    0.199184
 H   -7.124761    0.784866   -0.756543
 H   -4.885653    0.522950   -1.776308
 H   -6.588593   -2.891991    1.343613
 H   -4.350746   -3.140299    0.338446
 H   -2.153272   -0.952561    0.806779
 H   -2.216378    1.267284    1.804285
 H   -2.567441    3.719644    1.402197
 H   -2.788640    3.377867   -0.336377
 H   -0.192801    2.569043    1.350934
 H   -0.003986    0.114967    1.551819
 H    2.283525   -1.114223    1.076989
 H    5.795925    1.690060   -0.797639
 H   -0.400342    0.102621   -1.480069
 H   -4.573143    2.041422    0.379281
 H    0.482430    2.707578   -0.873690
 H   -0.311360   -2.200969   -1.029663
