55 
6qlu_ligand_ani.xyz
 C   -4.992048   -0.216494   -0.250876
 C   -5.285637   -1.387943   -0.949053
 C   -6.584891   -1.875583   -0.983546
 C   -7.330620   -0.000268    0.393410
 C    0.621222   -0.388510    0.425553
 C    8.632101   -0.872626   -0.853590
 C    7.233846   -1.036476   -0.313906
 C    6.398681   -2.051067   -0.779332
 C    5.107534   -2.208188   -0.285429
 C    6.739729   -0.174390    0.670097
 C    5.453512   -0.323519    1.172106
 C    4.626269   -1.340307    0.692729
 C    2.122357   -0.402938    0.120840
 C    2.092845    1.794474   -0.736459
 C    2.904498    3.073536   -0.612254
 C    0.595490    1.961006   -0.480944
 C   -0.061939    0.571270   -0.559233
 C   -2.440244   -0.274563   -0.611100
 C   -3.623861    0.300953   -0.204183
 C   -7.574850   -1.176045   -0.313881
 C   -6.020773    0.462830    0.408143
 C   -8.457301    0.711790    1.095679
 F   -8.837290   -1.644700   -0.342779
 N   -1.505049    0.665700   -0.346497
 N   -3.335120    1.535290    0.298528
 N   -2.067017    1.743171    0.204451
 O    2.667066    0.890727    0.211834
 O    4.273767    2.774754   -0.758356
 O    0.429100    2.545999    0.785919
 O    0.060535   -1.666141    0.230943
 S    2.966616   -1.498816    1.306943
 H   -4.502222   -1.923567   -1.477175
 H   -6.842391   -2.783634   -1.517592
 H    0.464967   -0.024913    1.450369
 H    9.378587   -0.977250   -0.057770
 H    8.769911    0.117883   -1.302249
 H    8.855072   -1.620125   -1.620149
 H    6.764415   -2.732803   -1.545008
 H    4.474657   -3.006245   -0.666249
 H    7.374573    0.623511    1.048315
 H    5.078793    0.367231    1.924519
 H    2.278835   -0.808939   -0.889823
 H    2.247295    1.374301   -1.746185
 H    2.683224    3.546893    0.355434
 H    2.628800    3.774732   -1.408740
 H    0.170384    2.596278   -1.275845
 H    0.071295    0.159979   -1.564461
 H   -2.159075   -1.239337   -1.012581
 H   -5.771613    1.378572    0.938684
 H   -8.925599    0.062292    1.841729
 H   -8.096635    1.611201    1.603793
 H   -9.234983    1.009265    0.385353
 H    4.413221    1.985733   -0.211170
 H   -0.526268    2.689738    0.895182
 H    0.445545   -2.250914    0.898809
