53 
6qm7_ligand_xtb.xyz
 N    5.688422   -1.247298    0.185892
 N   -2.124130   -1.599437   -1.691779
 C    4.443921   -0.715379    0.293558
 C    5.925802   -2.620688    0.600168
 C    7.436100   -2.680061    0.792937
 C    7.937783   -1.726217   -0.289337
 C    6.904499   -0.597045   -0.260196
 C    0.834356    1.736700   -0.109353
 C   -2.821098    1.087240    0.448194
 C   -3.430133   -1.820070   -1.452052
 C   -5.419681   -0.953831    1.335805
 C   -6.308270   -1.303609   -0.849497
 O    3.498872   -1.367884    0.682392
 N    4.370876    0.621986   -0.067870
 C    3.235942    1.426082   -0.063685
 C    3.410595    2.811326   -0.040714
 C    2.316527    3.652709   -0.052807
 C    1.948866    0.902926   -0.113765
 C    1.045020    3.113498   -0.076748
 F   -0.003496    3.972826   -0.108115
 C   -0.504055    1.135650   -0.172960
 N   -0.620855    0.050383   -0.903470
 C   -1.794866   -0.536963   -0.995679
 N   -2.932742   -0.037084   -0.292273
 C   -1.607969    1.697571    0.527056
 C   -3.959775   -0.881219   -0.586312
 N   -5.246515   -0.670106   -0.085453
 C   -7.644902   -0.747936   -0.354122
 O   -7.823056   -0.985615    1.022985
 C   -6.779715   -0.405378    1.768458
 H    5.596830   -3.310906   -0.185416
 H    5.353665   -2.836420    1.503750
 H    7.829743   -3.687361    0.681888
 H    7.705535   -2.303448    1.780362
 H    7.917345   -2.223705   -1.259055
 H    8.946675   -1.363485   -0.103752
 H    7.212317    0.181869    0.452583
 H    6.775875   -0.142755   -1.248085
 H   -3.711878    1.462594    0.931341
 H   -3.933752   -2.643300   -1.919529
 H   -4.622978   -0.478890    1.909850
 H   -5.391053   -2.039328    1.525978
 H   -6.301992   -2.397599   -0.720719
 H   -6.173078   -1.066990   -1.905823
 H    5.240973    1.121438   -0.167986
 H    4.406555    3.230463   -0.017537
 H    2.436413    4.724651   -0.044523
 H    1.795751   -0.162362   -0.143435
 H   -1.491050    2.590899    1.115115
 H   -8.477386   -1.239367   -0.859623
 H   -7.681470    0.333849   -0.553597
 H   -6.789035    0.687661    1.635034
 H   -6.978127   -0.645907    2.814184
