53 
6qm7_ligand_ani.xyz
 N  165.219498  142.786629  129.225082
 N  171.938676  146.210182  131.851758
 C  166.135793  142.979938  130.221250
 C  164.743041  143.941417  128.470034
 C  163.601352  143.362201  127.635609
 C  164.040538  141.915418  127.392240
 C  164.728552  141.516981  128.703019
 C  169.139044  142.660160  133.414168
 C  171.388816  145.122743  135.162803
 C  172.728858  147.074478  132.531115
 C  172.366711  148.391348  135.770276
 C  174.537152  148.151114  134.744998
 O  166.586037  144.093797  130.456151
 N  166.489322  141.837177  130.919210
 C  167.348750  141.771965  132.036502
 C  167.260415  140.651851  132.866367
 C  168.102761  140.529337  133.963018
 C  168.291976  142.756610  132.310501
 C  169.027275  141.527856  134.219744
 F  169.845055  141.364940  135.281289
 C  170.105256  143.761689  133.664869
 N  170.503284  144.442822  132.599857
 C  171.372947  145.441645  132.778526
 N  171.792672  145.817910  134.061231
 C  170.540909  144.081291  134.994984
 C  172.670639  146.882475  133.894282
 N  173.245964  147.516187  134.986872
 C  175.167518  148.513864  136.080876
 O  174.318780  149.369307  136.819847
 C  173.069358  148.756526  137.067700
 H  165.550447  144.348243  127.848101
 H  164.429069  144.734104  129.153932
 H  163.434335  143.920313  126.710042
 H  162.670486  143.385840  128.214129
 H  163.209134  141.249520  127.146782
 H  164.761304  141.869048  126.568360
 H  164.014335  141.058105  129.399626
 H  165.544405  140.804359  128.530333
 H  171.794832  145.432676  136.120174
 H  173.311842  147.821965  132.006255
 H  172.126609  149.305329  135.203275
 H  171.422053  147.880791  135.981227
 H  175.171859  147.441161  134.206831
 H  174.442455  149.067001  134.134262
 H  165.943847  141.005768  130.756386
 H  166.532854  139.871469  132.662496
 H  168.054029  139.670794  134.624491
 H  168.365207  143.616191  131.660194
 H  170.192643  143.516533  135.848019
 H  175.377647  147.596548  136.652634
 H  176.107779  149.053844  135.932045
 H  172.474629  149.476022  137.639559
 H  173.206250  147.851518  137.680669
