39 
6qme_ligand_dft.xyz
 C    2.131052   -2.652966    1.818717
 C    2.249047   -1.610778    0.739957
 C    1.268701   -0.632132    0.580359
 C    2.427541    0.339965   -1.281165
 C    3.423697   -0.621788   -1.151834
 C    3.326291   -1.579584   -0.151679
 C    0.491624    2.528450    0.499683
 C    1.706834    3.358477    0.156455
 C   -1.133215    0.791452   -0.434389
 C   -1.553599   -0.006611   -1.535304
 C   -3.197744    0.274830    0.650985
 C   -1.957171    0.932456    0.665447
 C    1.336846    0.344222   -0.413855
Cl    4.597564   -2.780484   -0.019503
 C    0.252576    1.411640   -0.525076
 O    2.240490    3.933813    1.247506
 O    2.148478    3.537441   -0.954199
 C   -2.765746   -0.658206   -1.571240
 C   -3.586427   -0.500493   -0.444492
 N   -4.815205   -0.964058   -0.091929
 C   -5.711337   -1.826444   -0.823834
 N   -5.149895   -0.504075    1.136660
 N   -4.199970    0.234911    1.592592
 H    1.213054   -2.508451    2.394077
 H    2.980751   -2.609873    2.508392
 H    2.114128   -3.661626    1.392488
 H    0.412385   -0.647087    1.251019
 H    2.509071    1.101931   -2.049944
 H    4.273579   -0.630171   -1.825709
 H    0.605495    2.134042    1.513588
 H   -0.361494    3.219551    0.514577
 H   -0.874685   -0.108035   -2.378057
 H   -1.678120    1.523420    1.531138
 H    0.347209    1.873869   -1.514031
 H    2.985679    4.473229    0.936788
 H   -3.062212   -1.259286   -2.424533
 H   -6.610422   -1.949222   -0.219905
 H   -5.248484   -2.802789   -0.994521
 H   -5.974592   -1.373677   -1.783945
