39 
6qme_ligand_ani.xyz
 C    2.295103   -2.589693    1.878652
 C    2.340392   -1.589370    0.754952
 C    1.348199   -0.617068    0.623689
 C    2.399341    0.303086   -1.322752
 C    3.400898   -0.653141   -1.230055
 C    3.361790   -1.584108   -0.198663
 C    0.473987    2.493924    0.569349
 C    1.567408    3.461915    0.183541
 C   -1.122590    0.766106   -0.401117
 C   -1.611376    0.148157   -1.579834
 C   -3.122941    0.086875    0.719755
 C   -1.874420    0.728248    0.757812
 C    1.358474    0.329917   -0.395764
Cl    4.632081   -2.776417   -0.105104
 C    0.265687    1.392048   -0.476231
 O    1.949233    4.223322    1.227945
 O    2.044528    3.597548   -0.919118
 C   -2.835492   -0.485103   -1.645403
 C   -3.586378   -0.499727   -0.461522
 N   -4.802448   -1.004310   -0.115500
 C   -5.770879   -1.723470   -0.912248
 N   -5.058947   -0.745621    1.185907
 N   -4.073356   -0.097948    1.698378
 H    1.408808   -2.434419    2.500582
 H    3.181677   -2.504601    2.516320
 H    2.269021   -3.614409    1.492825
 H    0.533519   -0.610249    1.347934
 H    2.434922    1.042298   -2.119123
 H    4.211927   -0.684277   -1.951512
 H    0.707664    2.074392    1.553856
 H   -0.443599    3.086246    0.685183
 H   -0.988972    0.178332   -2.472087
 H   -1.540150    1.181795    1.685409
 H    0.353900    1.871145   -1.458138
 H    2.630476    4.826165    0.886264
 H   -3.195906   -0.947062   -2.560044
 H   -6.728565   -1.196670   -0.898636
 H   -5.905408   -2.735472   -0.521153
 H   -5.404743   -1.777506   -1.937973
