39 
6qme_ligand_xtb.xyz
 C    2.127533   -2.587833    1.833930
 C    2.203982   -1.577371    0.734192
 C    1.244969   -0.585006    0.596645
 C    2.353675    0.305623   -1.327193
 C    3.326719   -0.670971   -1.212040
 C    3.245777   -1.600147   -0.190329
 C    0.534581    2.517278    0.537993
 C    1.778846    3.291856    0.179213
 C   -1.123952    0.824711   -0.421509
 C   -1.572186    0.102275   -1.547460
 C   -3.140690    0.264668    0.695478
 C   -1.902174    0.906935    0.711665
 C    1.304061    0.357100   -0.421934
Cl    4.472905   -2.817103   -0.066207
 C    0.251168    1.441433   -0.519214
 O    2.451809    3.676678    1.269186
 O    2.141617    3.561665   -0.933501
 C   -2.785468   -0.539573   -1.588889
 C   -3.574273   -0.449622   -0.447307
 N   -4.797370   -0.923775   -0.086772
 C   -5.715457   -1.716699   -0.845217
 N   -5.072093   -0.529929    1.161662
 N   -4.121794    0.162505    1.636045
 H    1.246913   -2.423609    2.448743
 H    3.014990   -2.528535    2.462982
 H    2.086924   -3.594218    1.419054
 H    0.425174   -0.552873    1.300187
 H    2.420629    1.038056   -2.117041
 H    4.146480   -0.712745   -1.912101
 H    0.669726    2.090249    1.531093
 H   -0.292644    3.231565    0.569148
 H   -0.923086    0.056375   -2.409550
 H   -1.595972    1.440816    1.595304
 H    0.346522    1.922943   -1.498767
 H    3.239122    4.188266    1.023579
 H   -3.110235   -1.084780   -2.461627
 H   -6.571161   -1.931121   -0.208129
 H   -5.245662   -2.652291   -1.155118
 H   -6.048401   -1.173632   -1.732386
