66 
6qmk_ligand_xtb.xyz
 C    0.627963   -2.787338    2.985978
 O    0.821637   -3.244970    1.666979
 C   -0.034511   -2.795588    0.711310
 C   -1.228814   -2.136356    0.926517
 C   -2.054836   -1.701112   -0.124927
 C   -1.713393   -1.932317   -1.440887
 C   -0.506743   -2.584302   -1.690251
 N    0.141188   -2.888897   -2.849580
 N    1.250369   -3.443372   -2.566149
 N    1.405611   -3.545709   -1.246783
 C    2.582100   -4.116394   -0.666958
 C    0.318679   -3.010153   -0.624807
 C   -3.288474   -0.857272    0.121731
 C   -3.706735   -0.730734    1.591633
 C   -5.062033   -0.078791    1.707095
 O   -5.976124   -0.208236    0.938692
 O   -5.156576    0.668947    2.813705
 C   -3.017501    0.518297   -0.452050
 C   -3.962815    1.201292   -1.200559
 C   -3.654837    2.437235   -1.741097
 C   -2.395104    3.003272   -1.594341
 C   -2.088725    4.327732   -2.228522
 C   -1.437729    2.310043   -0.849947
 C   -0.026845    2.822850   -0.688446
 N    0.968058    1.775644   -0.580915
 C    1.073232    0.855719   -1.693690
 C    2.230088   -0.118356   -1.500851
 O    3.497597    0.507899   -1.437831
 C    3.943827    1.043185   -0.278749
 C    5.320987    1.297814   -0.241053
 C    5.914817    1.842297    0.876531
 C    5.151912    2.145927    1.995765
 C    3.791651    1.912588    1.963164
 C    3.184897    1.369770    0.840822
 S    1.398201    1.233865    0.926518
 O    0.931675    2.186257    1.889367
 O    1.036336   -0.143843    1.159562
 C   -1.773832    1.102547   -0.260099
 H   -0.291799   -3.193069    3.420016
 H    0.606295   -1.694670    3.008782
 H    1.483306   -3.152717    3.552444
 H   -1.519476   -1.917401    1.938635
 H   -2.332721   -1.592171   -2.254617
 H    2.321110   -4.978937   -0.052204
 H    3.088056   -3.381545   -0.038620
 H    3.235790   -4.423973   -1.481054
 H   -4.133327   -1.296381   -0.420856
 H   -2.990264   -0.142119    2.164842
 H   -3.797329   -1.724078    2.040056
 H   -6.038579    1.067886    2.882048
 H   -4.940501    0.770247   -1.355267
 H   -4.405701    2.965905   -2.310863
 H   -1.698286    5.028360   -1.492461
 H   -1.344329    4.215189   -3.017130
 H   -2.986813    4.752529   -2.669552
 H    0.058044    3.403309    0.233854
 H    0.253471    3.460372   -1.532341
 H    1.244391    1.448712   -2.599062
 H    0.152747    0.270113   -1.825905
 H    2.286137   -0.769585   -2.378315
 H    2.057969   -0.725740   -0.608837
 H    5.896536    1.053271   -1.119715
 H    6.977981    2.028730    0.877755
 H    5.611026    2.568621    2.875124
 H    3.155979    2.162320    2.797562
 H   -1.037247    0.591746    0.341735
