52 
6qmr_ligand_xtb.xyz
 C    1.821802    3.370417   -0.587824
 C    1.114961    2.333842    0.010558
 C    1.778596    1.145655    0.298705
 C    1.812201   -1.142309   -1.845025
 C    0.778463   -1.449717   -2.711855
 C   -0.225256   -2.323276   -2.330794
 C   -0.176235   -2.903930   -1.071031
 C    0.841667   -2.598050   -0.184158
 C    0.862461   -3.173056    1.208082
 C    0.217531   -2.225790    2.186419
 C   -1.105456    1.288122    0.027429
 C   -2.450885    1.263105    0.350445
 C   -3.031121    2.386338    0.931079
 C   -2.269573    3.516001    1.172964
 C   -0.919713    3.529769    0.868861
 C   -3.306783    0.050641    0.086248
 C   -4.136482    0.185217   -1.199517
 C    3.095749    0.946536   -0.074913
 C    3.787640    1.985351   -0.685670
 C    3.156012    3.195929   -0.914729
 C   -0.321919    2.407964    0.306409
 C    3.736765   -0.403791    0.140372
 O    2.794303   -1.436524    0.369201
 C    1.851550   -1.699459   -0.568966
 O    0.866996   -2.130385    3.318249
 O   -0.811837   -1.604094    1.971174
 N   -2.514880   -1.201598   -0.056529
 O   -4.747444   -1.070400   -1.412040
 H    1.322739    4.298331   -0.821432
 H    1.249280    0.366818    0.827754
 H    2.582691   -0.462575   -2.168812
 H    0.764886   -1.004729   -3.694406
 H   -1.018446   -2.577532   -3.017411
 H   -0.930295   -3.620846   -0.777136
 H    0.300963   -4.110099    1.235602
 H    1.883789   -3.361759    1.536593
 H   -0.626194    0.447028   -0.452386
 H   -4.077552    2.374415    1.194728
 H   -2.729528    4.384756    1.617054
 H   -0.322093    4.400307    1.089731
 H   -3.993205   -0.101199    0.925654
 H   -4.872898    0.984363   -1.077367
 H   -3.477820    0.445388   -2.040925
 H    4.816807    1.845653   -0.980455
 H    3.702817    4.002751   -1.377667
 H    4.348446   -0.395695    1.048565
 H    4.388859   -0.654915   -0.706211
 H    0.444733   -1.527880    3.954590
 H   -1.910886   -1.164311   -0.890210
 H   -1.885958   -1.389015    0.779976
 H   -3.192451   -1.959576   -0.200157
 H   -5.452519   -0.990322   -2.061183
