38 
6qqq_ligand_ani.xyz
 C  -18.833481  -17.263434   12.274920
 N  -19.864869  -15.474557   12.690996
 C  -20.816808  -16.422746   12.778526
 C  -22.385251  -21.870365   10.795102
 C  -21.995912  -23.565101    9.001333
 C  -20.852013  -25.847683    8.019969
 C  -21.384693  -25.868713    9.305004
 C  -21.954626  -24.706090    9.802964
 C  -25.392891  -18.501418    8.661525
 O  -24.780460  -19.693090    8.224710
 C  -24.000554  -20.357540    9.118007
 C  -23.765045  -19.926606   10.422262
 C  -22.965375  -20.700586   11.265454
 C  -22.733314  -20.231687   12.682739
 O  -22.093452  -18.943500   12.716145
 C  -20.763107  -18.969396   12.480184
 C  -20.181891  -17.620304   12.510593
 N  -18.647393  -15.958472   12.385318
 O  -20.134491  -19.982750   12.272253
 C  -22.606851  -22.302206    9.483829
 C  -21.432481  -23.665460    7.725685
 N  -20.865713  -24.767184    7.237583
 C  -23.415920  -21.537086    8.651578
 H  -18.007626  -17.917412   12.031774
 H  -19.970794  -14.481212   12.826320
 H  -21.843977  -16.190327   13.020435
 H  -21.711620  -22.431520   11.439670
 H  -20.389777  -26.737665    7.597292
 H  -21.345254  -26.773359    9.904695
 H  -22.387140  -24.684101   10.801148
 H  -25.965164  -18.126677    7.811641
 H  -26.071852  -18.685420    9.504123
 H  -24.646760  -17.752405    8.956675
 H  -24.195533  -19.004554   10.803497
 H  -23.678515  -20.068594   13.208664
 H  -22.129308  -20.951200   13.240706
 H  -21.417890  -22.795430    7.069409
 H  -23.628198  -21.851149    7.633274
