42 
6qqt_ligand_ani.xyz
 C  -23.520541   21.103068  -11.279863
 C  -22.260619   23.738980   -9.894984
 C  -21.765463   23.311907   -7.557474
 C  -21.148146   24.583063   -9.943620
 C  -25.329318   22.378810  -10.974427
 C  -25.785937   21.091145  -10.976233
 C  -20.239199   17.396223  -11.843996
 N  -17.849463   16.540826  -12.127578
 C  -18.875344   17.486505  -12.016130
 N  -18.583617   18.806887  -12.012083
 N  -19.665511   19.591377  -11.830363
 C  -20.679249   18.742934  -11.738800
 C  -22.041602   19.264025  -11.544391
 C  -23.145333   18.390139  -11.447117
 C  -24.427601   18.858881  -11.262140
 C  -24.639733   20.245974  -11.170665
 N  -23.965421   22.403286  -11.157680
 C  -23.116575   23.571925  -11.141944
 C  -22.553990   23.110312   -8.689588
 C  -20.660672   24.157672   -7.623606
 O  -19.828487   24.422911   -6.580682
 C  -20.110088   23.794318   -5.349612
 C  -20.354358   24.795197   -8.829116
 C  -22.223832   20.637011  -11.460001
 H  -22.026216   22.803606   -6.635058
 H  -20.898107   25.088163  -10.875266
 H  -25.865583   23.311323  -10.845080
 H  -26.813017   20.772195  -10.857251
 H  -20.826529   16.490067  -11.797602
 H  -18.217619   15.598882  -12.112785
 H  -17.288138   16.663789  -12.962782
 H  -17.662970   19.216259  -11.992248
 H  -22.979787   17.319059  -11.518828
 H  -25.260037   18.165044  -11.187572
 H  -22.464796   23.540966  -12.022971
 H  -23.778795   24.435500  -11.270294
 H  -23.408811   22.442256   -8.624010
 H  -19.339629   24.132081   -4.655143
 H  -21.097667   24.084088   -4.966839
 H  -20.066947   22.700607   -5.437530
 H  -19.488557   25.450272   -8.863020
 H  -21.368695   21.302469  -11.526627
