38 
6qqw_ligand_ani.xyz
 C  -24.561526   20.254354  -11.290635
 C  -22.094094   23.494396   -9.593164
 C  -21.627144   22.778375   -7.330475
 C  -20.932857   24.266661   -9.564120
 C  -25.205581   22.364950  -10.850893
 C  -25.691608   21.098660  -11.014967
 N  -17.843115   16.517843  -12.575590
 C  -18.848234   17.469324  -12.366707
 N  -18.525003   18.770975  -12.194104
 N  -19.591361   19.555499  -11.936629
 C  -20.626933   18.729433  -11.969086
 C  -20.217207   17.394701  -12.232019
 C  -21.980197   19.258391  -11.736568
 C  -23.105893   18.407764  -11.764781
 C  -24.380160   18.883464  -11.545872
 C  -23.420926   21.089748  -11.277003
 C  -22.131916   20.615247  -11.489435
 N  -23.838323   22.376743  -11.006867
 C  -22.963876   23.515325  -10.843965
 C  -22.434699   22.750074   -8.463410
 C  -20.469907   23.551052   -7.310550
 C  -20.123908   24.296784   -8.432536
 H  -21.905754   22.192064   -6.458101
 H  -20.655323   24.852923  -10.438512
 H  -25.722687   23.288685  -10.620104
 H  -26.727840   20.793678  -10.952282
 H  -18.233906   15.591144  -12.682975
 H  -17.262200   16.727298  -13.379609
 H  -17.595410   19.150195  -12.106857
 H  -20.827063   16.505663  -12.308853
 H  -22.964081   17.349271  -11.962850
 H  -25.229938   18.207277  -11.569888
 H  -21.260298   21.261935  -11.456336
 H  -22.317399   23.590460  -11.725913
 H  -23.608243   24.401040  -10.845143
 H  -23.332343   22.137256   -8.476167
 H  -19.840621   23.571732   -6.424326
 H  -19.221427   24.903616   -8.428708
