38 
6qr1_ligand_ani.xyz
 C  -22.121792   20.527301  -11.208855
 C  -20.455534   18.769058  -11.737357
 C  -19.932680   17.633991  -12.369422
 C  -20.604258   16.509863  -12.922077
 C  -24.130011   18.537496  -10.929128
 C  -25.626166   20.612601  -10.365852
 C  -25.309809   21.941015  -10.312340
 C  -23.233984   23.339965  -10.606551
 C  -22.151689   23.391756   -9.544999
 C  -22.307437   22.806747   -8.291698
 C  -21.276041   22.914246   -7.366618
 C  -20.121833   23.597430   -7.733498
 C  -20.951284   24.047379   -9.802750
 C  -23.430879   20.860705  -10.876874
 C  -21.824719   19.181226  -11.401112
 C  -18.526298   17.831333  -12.388281
 C  -22.836425   18.202021  -11.262947
 C  -24.445470   19.889053  -10.724627
 N  -23.979710   22.101882  -10.623489
 N  -19.949998   24.160168   -8.929917
 N  -19.377433   19.529953  -11.457235
 N  -18.197521   18.977017  -11.827261
 N  -17.577660   17.000445  -12.953633
 N  -21.152783   15.586594  -13.361696
Cl  -27.160645   19.888077  -10.061591
 H  -21.366542   21.301353  -11.316313
 H  -24.889414   17.769350  -10.824296
 H  -25.927224   22.797142  -10.069110
 H  -22.770902   23.501416  -11.586393
 H  -23.962121   24.142805  -10.456470
 H  -23.219398   22.262874   -8.055552
 H  -21.364773   22.472151   -6.378198
 H  -19.293316   23.699792   -7.033979
 H  -20.786261   24.520226  -10.772243
 H  -22.579494   17.158902  -11.407347
 H  -19.355910   20.377076  -10.910100
 H  -16.639155   17.200120  -12.638355
 H  -17.801429   16.016469  -12.951837
