39 
6qr2_ligand_dft.xyz
 C  -25.468570   21.971970  -10.581350
 C  -23.628841   20.813351  -11.100937
 C  -22.098804   19.053612  -11.591957
 C  -24.446899   18.536800  -11.189811
 C  -21.025521   16.288197  -13.033812
 C  -18.912682   17.474643  -12.567618
 O  -21.598236   25.384803  -10.251691
 C  -21.736186   24.498770   -9.241051
 N  -21.046874   24.720652   -8.135757
 C  -21.189055   23.840874   -7.135125
 C  -22.014572   22.732495   -7.211794
 C  -22.731548   22.522089   -8.392207
 C  -22.603054   23.413864   -9.443413
 C  -23.330891   23.280783  -10.763695
 N  -24.123863   22.079970  -10.867058
 C  -25.866012   20.668250  -10.649112
 C  -24.702315   19.899815  -10.983044
 C  -22.328345   20.411029  -11.394433
 C  -23.161723   18.127423  -11.488758
 C  -20.729491   18.601770  -11.890429
 C  -20.299616   17.379745  -12.503291
 N  -21.558214   15.360889  -13.488684
 N  -18.603988   18.670269  -12.035024
 N  -19.690733   19.369523  -11.612249
 N  -17.970441   16.569338  -13.003959
 H  -26.040272   22.862236  -10.356074
 H  -25.246831   17.807036  -11.108581
 H  -20.608917   24.046734   -6.239165
 H  -22.096908   22.045458   -6.377455
 H  -23.385735   21.661190   -8.494815
 H  -22.610567   23.303407  -11.589131
 H  -23.990678   24.141271  -10.917094
 H  -26.869163   20.298556  -10.492772
 H  -21.506640   21.116384  -11.461403
 H  -22.967936   17.069877  -11.632472
 H  -17.685466   19.033269  -11.837934
 H  -18.379495   15.760723  -13.455156
 H  -17.216829   16.959649  -13.554216
 H  -20.968090   26.051288   -9.938472
