42 
6qrc_ligand_ani.xyz
 C  -24.553872  -20.119424   11.404804
 C  -22.195141  -23.304913    9.459012
 C  -20.321617  -24.092400    8.154804
 C  -22.577538  -22.480101    8.399835
 C  -23.251236  -20.855943    6.247723
 C  -25.700203  -20.942801   11.132600
 N  -17.768298  -16.516450   12.719901
 C  -18.780685  -17.425317   12.390965
 N  -18.472340  -18.710935   12.106920
 N  -19.555590  -19.480519   11.876130
 C  -20.582928  -18.652085   11.994991
 C  -20.153984  -17.338485   12.325202
 C  -21.948564  -19.161486   11.792849
 C  -23.065296  -18.305451   11.902267
 C  -24.351041  -18.762259   11.712462
 C  -23.421855  -20.960981   11.310722
 C  -22.121096  -20.504608   11.491258
 N  -23.859420  -22.231963   11.000140
 C  -23.001997  -23.367648   10.752634
 C  -21.066989  -24.111464    9.330732
 C  -20.691268  -23.273224    7.101817
 C  -21.823236  -22.463972    7.227019
 O  -22.116157  -21.684902    6.150484
 C  -25.230764  -22.203541   10.892938
 H  -19.441431  -24.723943    8.062555
 H  -23.454088  -21.848596    8.504390
 H  -23.307786  -20.304538    5.307737
 H  -24.167083  -21.446797    6.379747
 H  -23.158052  -20.148111    7.082356
 H  -26.735589  -20.628717   11.120914
 H  -17.058883  -16.438092   11.999922
 H  -18.148750  -15.598755   12.909946
 H  -17.564889  -19.141147   12.190752
 H  -20.755062  -16.456502   12.495604
 H  -22.906847  -17.257334   12.139304
 H  -25.193457  -18.081895   11.798805
 H  -21.257287  -21.154563   11.389014
 H  -23.649767  -24.250855   10.753528
 H  -22.311609  -23.476427   11.596475
 H  -20.766780  -24.758514   10.151585
 H  -20.127050  -23.237272    6.174660
 H  -25.763475  -23.112069   10.638496
