35 
6qrg_ligand_ani.xyz
 C  -20.330426   17.507286  -12.170236
 C  -18.933660   17.391768  -11.977455
 O  -20.651935   19.860961  -12.227393
 C  -21.116949   18.744456  -12.270219
 O  -22.435760   18.485498  -12.416902
 C  -23.266093   19.657314  -12.512371
 C  -23.480833   20.308416  -11.166556
 C  -23.124132   21.633118  -10.944896
 C  -23.344800   22.214561   -9.697546
 C  -23.914971   21.476536   -8.673539
 C  -24.260377   20.139306   -8.893436
 O  -24.813289   19.491784   -7.826739
 C  -25.196482   18.159225   -7.997536
 C  -25.781251   17.643340   -6.694122
 O  -26.151696   16.361574   -6.865000
 C  -26.724045   15.739811   -5.711707
 O  -25.903249   18.257102   -5.669532
 C  -24.033982   19.549850  -10.133158
 C  -20.779858   16.202979  -12.246693
 N  -19.687743   15.428817  -12.102283
 N  -18.549544   16.126645  -11.936603
 H  -18.211272   18.188937  -11.869855
 H  -22.818872   20.361892  -13.217600
 H  -24.203943   19.278112  -12.929113
 H  -22.654027   22.200258  -11.745003
 H  -23.069233   23.251643   -9.524830
 H  -24.098942   21.911478   -7.694900
 H  -25.955901   18.055012   -8.784446
 H  -24.341162   17.525858   -8.270756
 H  -26.964608   14.720455   -6.014009
 H  -26.010687   15.735285   -4.883687
 H  -27.627283   16.269296   -5.398104
 H  -24.284987   18.508599  -10.323917
 H  -21.767258   15.789065  -12.392583
 H  -19.641749   14.421763  -12.106276
