104 
6qtq_ligand_ani.xyz
 N   -0.959934    0.197190    1.691683
 C   -0.582077   -1.236145    1.789879
 C   -0.039550   -1.667775    0.424349
 O    0.686683   -0.905295   -0.202912
 C   -1.751344   -2.060172    2.345906
 C   -3.020396   -1.983637    1.481931
 C   -4.370559   -1.918939    2.226891
 N   -5.053870   -0.637469    2.057614
 C   -4.471534    0.502063    2.578044
 N   -4.950453    1.687708    1.987323
 N   -3.563382    0.597861    3.477213
 N   -0.349699   -2.909850   -0.025284
 C   -0.004323   -3.341046   -1.381558
 C    1.528990   -3.304295   -1.595194
 O    2.001489   -2.893940   -2.641525
 C   -0.713130   -2.535209   -2.495153
 C   -2.169932   -2.255482   -2.206708
 C   -2.606646   -0.953469   -1.935621
 C   -3.109646   -3.286633   -2.130906
 C   -3.911998   -0.694950   -1.541346
 C   -4.423002   -3.044921   -1.744750
 C   -4.813464   -1.748550   -1.411720
 O   -6.057664   -1.457546   -0.923699
 N    2.259312   -3.798097   -0.545242
 C    3.593055   -3.338365   -0.170145
 C    3.415221   -2.186387    0.844534
 O    2.677308   -2.342617    1.810393
 C    4.511101   -3.054914   -1.346415
 N    4.091372   -1.022287    0.629846
 C    3.933257    0.124642    1.509669
 C    3.570813    1.403801    0.736212
 O    4.010483    2.498723    1.055359
 C    5.134874    0.350714    2.446023
 C    6.437684    0.623567    1.691262
 C    5.295625   -0.840894    3.390606
 N    2.729591    1.224332   -0.325245
 C    2.131867    2.371948   -0.971992
 C    0.830575    2.770955   -0.226796
 O    0.552257    2.265605    0.857440
 C    1.999836    2.114409   -2.491416
 C    1.250909    0.823258   -2.824049
 C    3.384784    2.104585   -3.141243
 N    0.016591    3.723897   -0.766544
 C   -1.187292    4.118319   -0.030946
 C   -2.245128    3.020952    0.034529
 O   -2.081115    1.860887   -0.278754
 C   -1.661716    5.407147   -0.725256
 C   -0.369494    5.990831   -1.292652
 C    0.384867    4.746156   -1.755169
 O   -3.384622    3.489812    0.532474
 H   -1.435004    0.415861    0.794275
 H   -1.578972    0.488195    2.474033
 H   -0.111327    0.788578    1.675106
 H    0.277442   -1.328387    2.466846
 H   -1.950012   -1.652956    3.344652
 H   -1.433798   -3.094726    2.516985
 H   -2.950579   -1.073306    0.878500
 H   -3.036146   -2.815028    0.770398
 H   -4.250850   -2.110620    3.300685
 H   -5.056201   -2.688209    1.856976
 H   -5.403681   -0.520617    1.111799
 H   -4.784056    2.459297    2.628985
 H   -5.935908    1.633453    1.747781
 H   -3.381764   -0.306757    3.902277
 H   -1.105599   -3.400450    0.424048
 H   -0.319145   -4.390834   -1.442134
 H   -0.592017   -3.087685   -3.432366
 H   -0.184286   -1.588884   -2.614327
 H   -1.905256   -0.124799   -2.000808
 H   -2.806710   -4.306287   -2.364750
 H   -4.227631    0.312508   -1.278691
 H   -5.135288   -3.866423   -1.675397
 H   -6.566138   -2.276233   -0.864343
 H    1.700366   -3.971230    0.281925
 H    4.017802   -4.160740    0.421858
 H    5.536595   -2.875099   -1.005862
 H    4.160343   -2.203815   -1.933359
 H    4.513106   -3.925855   -2.005140
 H    4.617443   -0.887245   -0.220713
 H    3.061170   -0.135314    2.127940
 H    4.884236    1.245541    3.027797
 H    7.249206    0.814778    2.402531
 H    6.731900   -0.239097    1.080189
 H    6.344448    1.497573    1.040026
 H    6.060845   -0.630670    4.145442
 H    4.359553   -1.075871    3.908929
 H    5.605511   -1.736817    2.840072
 H    2.160599    0.377561   -0.320993
 H    2.831421    3.206672   -0.828406
 H    1.432604    2.940770   -2.925920
 H    1.040488    0.782466   -3.898526
 H    1.845839   -0.064959   -2.576926
 H    0.294787    0.749775   -2.292166
 H    3.300667    1.925690   -4.218576
 H    3.906922    3.058401   -3.001456
 H    4.002518    1.308906   -2.710556
 H   -0.916826    4.326771    1.013175
 H   -2.356053    5.158123   -1.536300
 H   -2.179653    6.073690   -0.032160
 H    0.198180    6.506089   -0.509147
 H   -0.535710    6.697706   -2.110873
 H    1.466892    4.895912   -1.787031
 H    0.037977    4.447234   -2.751575
 H   -3.988850    2.729944    0.730732
