104 
6qtq_ligand_xtb.xyz
 N   -1.077779    0.440541    0.939339
 C   -0.765675   -0.875276    1.545917
 C   -0.432105   -1.807381    0.370680
 O    0.322213   -1.390863   -0.489359
 C   -1.823961   -1.313647    2.561644
 C   -3.264403   -1.494986    2.037850
 C   -4.336769   -0.643338    2.767085
 N   -4.784486    0.501249    1.999280
 C   -3.936962    1.504097    1.645432
 N   -4.216065    2.180291    0.524744
 N   -2.858835    1.823983    2.316700
 N   -0.997947   -3.018569    0.337284
 C   -0.789288   -3.930679   -0.781874
 C    0.728022   -3.910952   -1.126512
 O    1.139376   -3.656720   -2.228720
 C   -1.616299   -3.553810   -2.031999
 C   -2.800442   -2.689994   -1.714756
 C   -2.694126   -1.307107   -1.812426
 C   -4.013644   -3.232128   -1.309992
 C   -3.754437   -0.479653   -1.493096
 C   -5.089123   -2.417387   -1.002019
 C   -4.960882   -1.036812   -1.081770
 O   -5.980411   -0.190662   -0.724658
 N    1.472409   -4.274225   -0.055008
 C    2.855774   -3.869474    0.176797
 C    2.776753   -2.510224    0.901604
 O    1.904548   -2.325392    1.740537
 C    3.715403   -3.917809   -1.076224
 N    3.673914   -1.585239    0.553814
 C    3.850524   -0.342295    1.270014
 C    3.608358    0.882968    0.378879
 O    4.215033    1.922386    0.528981
 C    5.234633   -0.262641    1.943350
 C    6.366600   -0.450623    0.934651
 C    5.341290   -1.280018    3.074681
 N    2.675447    0.719957   -0.585454
 C    2.265527    1.895310   -1.326183
 C    1.334039    2.704855   -0.430182
 O    0.811231    2.182891    0.567244
 C    1.644788    1.543978   -2.692729
 C    0.204388    1.058796   -2.554459
 C    2.496542    0.494729   -3.405256
 N    1.090835    3.978714   -0.697731
 C    0.194738    4.719511    0.186902
 C   -1.000276    3.847217    0.557998
 O   -1.659353    3.241400   -0.268129
 C   -0.159409    5.958642   -0.632682
 C    1.136935    6.213650   -1.399521
 C    1.586435    4.803740   -1.782595
 O   -1.268050    3.863271    1.831330
 H   -1.545341    0.331885    0.035197
 H   -1.721999    1.063054    1.565277
 H   -0.203442    1.017271    0.756523
 H    0.181430   -0.781978    2.092251
 H   -1.814697   -0.568603    3.358999
 H   -1.470199   -2.237129    3.022090
 H   -3.310747   -1.259554    0.973331
 H   -3.556641   -2.539928    2.143584
 H   -3.960470   -0.309936    3.738282
 H   -5.220366   -1.250675    2.961119
 H   -5.524459    0.320012    1.335153
 H   -3.517353    2.824966    0.171524
 H   -4.968194    1.886174   -0.074666
 H   -2.831956    1.440641    3.252271
 H   -1.665832   -3.281085    1.041633
 H   -1.052342   -4.932002   -0.431979
 H   -1.936312   -4.472695   -2.522135
 H   -0.946933   -3.024314   -2.713836
 H   -1.772789   -0.874800   -2.169218
 H   -4.129322   -4.303694   -1.248134
 H   -3.667270    0.591346   -1.590449
 H   -6.032913   -2.854195   -0.706261
 H   -6.814523   -0.675619   -0.700276
 H    0.973205   -4.352086    0.821860
 H    3.256426   -4.581474    0.912885
 H    4.767906   -3.826863   -0.816451
 H    3.432697   -3.146419   -1.786180
 H    3.572848   -4.879623   -1.562264
 H    4.362340   -1.795314   -0.150857
 H    3.077053   -0.322307    2.049559
 H    5.310715    0.747278    2.355547
 H    7.316967   -0.218170    1.407199
 H    6.418497   -1.478289    0.578497
 H    6.239917    0.219401    0.088201
 H    6.308418   -1.195632    3.562394
 H    4.566217   -1.115890    3.819455
 H    5.239533   -2.294528    2.692694
 H    2.050631   -0.075748   -0.571239
 H    3.177235    2.486190   -1.480765
 H    1.652312    2.456129   -3.296050
 H   -0.210837    0.864219   -3.540546
 H    0.190127    0.133305   -1.986311
 H   -0.418819    1.802582   -2.059587
 H    2.168100    0.391369   -4.436022
 H    3.544308    0.784006   -3.406332
 H    2.399002   -0.473779   -2.922266
 H    0.716873    4.979445    1.114901
 H   -0.970853    5.719809   -1.322396
 H   -0.456781    6.794827   -0.005739
 H    1.871972    6.679488   -0.743552
 H    0.991963    6.848884   -2.269698
 H    2.670334    4.714992   -1.874770
 H    1.120010    4.499735   -2.724806
 H   -1.992465    3.180339    2.078503
