115 
6qtx_ligand_dft.xyz
 N   -0.010980   -1.226394    1.951223
 C   -1.151860   -1.826342    2.689550
 C   -1.758548   -2.905484    1.804853
 O   -1.528890   -4.094887    1.988613
 N   -2.454718   -2.424711    0.755914
 C   -2.888354   -3.273215   -0.343390
 C   -1.697188   -3.508249   -1.297160
 O   -1.655551   -3.067170   -2.448995
 C   -4.097789   -2.658553   -1.054095
 C   -5.240170   -2.412806   -0.097951
 C   -5.402201   -1.167406    0.512175
 C   -6.125591   -3.440970    0.228966
 C   -6.422958   -0.953630    1.433257
 C   -7.149056   -3.231297    1.147541
 C   -7.299410   -1.986390    1.752764
 N   -0.690950   -4.227324   -0.764054
 C    0.602076   -4.302181   -1.388154
 C    1.670416   -3.590666   -0.553077
 O    1.460679   -3.200420    0.586770
 N    2.882266   -3.465660   -1.152600
 C    4.073409   -3.100263   -0.386998
 C    4.206764   -1.589795   -0.178926
 O    4.808826   -1.137094    0.784291
 C    5.335192   -3.706755   -1.047236
 C    5.651993   -3.086581   -2.412851
 C    6.545195   -3.619203   -0.114475
 N    3.681481   -0.784642   -1.142696
 C    3.633926    0.640901   -0.884496
 C    2.844178    0.843749    0.418921
 O    1.844976    0.165716    0.640375
 C    3.045582    1.398010   -2.093596
 C    3.179831    2.913118   -1.921604
 C    1.591378    1.031161   -2.392436
 N    3.262101    1.763904    1.326936
 C    2.763295    1.602246    2.695577
 C    1.250564    1.727024    2.794715
 O    0.608662    0.971575    3.526559
 C    3.552812    2.647679    3.523144
 C    4.335347    3.466721    2.483654
 C    4.536219    2.487015    1.330768
 N    0.664652    2.707086    2.080398
 C   -0.779817    2.828127    2.003645
 C   -1.405181    1.818351    1.016561
 O   -2.105771    0.882727    1.398306
 C   -1.124372    4.272490    1.636643
 O   -0.338722    4.627198    0.506584
 N   -1.158221    2.070448   -0.286289
 C   -1.934465    1.452395   -1.336513
 C   -1.493313    0.017649   -1.596870
 O   -0.788776   -0.626865   -0.842518
 C   -1.919925    2.321536   -2.610530
 C   -2.122927    3.788620   -2.301817
 C   -3.234856    4.223478   -1.572018
 C   -1.166352    4.728329   -2.685879
 C   -3.377688    5.561180   -1.222323
 C   -1.309357    6.074520   -2.348988
 C   -2.410900    6.492978   -1.606273
 O   -2.026555   -0.463145   -2.703499
 H    0.679553   -1.930525    1.645224
 H   -0.307242   -0.752851    1.082852
 H    0.445028   -0.507618    2.538591
 H   -0.774251   -2.283322    3.602644
 H   -1.846693   -1.017599    2.920843
 H   -2.555107   -1.420627    0.659887
 H   -3.170247   -4.235877    0.096759
 H   -4.397609   -3.335712   -1.859413
 H   -3.801162   -1.721961   -1.536885
 H   -4.720243   -0.353563    0.269862
 H   -6.014897   -4.414640   -0.242979
 H   -6.535689    0.020283    1.899945
 H   -7.832693   -4.039341    1.388850
 H   -8.097826   -1.821968    2.469594
 H   -0.778619   -4.521713    0.207036
 H    0.905170   -5.348494   -1.518277
 H    0.521013   -3.852023   -2.381046
 H    3.021582   -3.931809   -2.039297
 H    3.965275   -3.515355    0.619283
 H    5.102818   -4.771049   -1.193371
 H    5.951189   -2.038781   -2.307927
 H    6.478513   -3.625833   -2.884536
 H    4.804681   -3.117822   -3.108992
 H    7.405495   -4.113798   -0.575285
 H    6.813386   -2.579008    0.089664
 H    6.345163   -4.106510    0.844580
 H    2.969703   -1.186751   -1.734481
 H    4.664729    0.973654   -0.735945
 H    3.664263    1.098599   -2.949344
 H    2.788598    3.429100   -2.803764
 H    4.224770    3.216900   -1.801955
 H    2.612125    3.268583   -1.052266
 H    1.435097   -0.040038   -2.553141
 H    0.941301    1.324632   -1.563650
 H    1.267968    1.545354   -3.303748
 H    2.980229    0.585921    3.039630
 H    2.897309    3.269296    4.137404
 H    4.236329    2.126206    4.197078
 H    3.739967    4.319020    2.138184
 H    5.279073    3.851373    2.875390
 H    5.363285    1.790684    1.520211
 H    4.703747    2.990928    0.378824
 H    1.216909    3.219953    1.405454
 H   -1.195971    2.581724    2.982031
 H   -0.886400    4.924361    2.485741
 H   -2.195710    4.353018    1.417119
 H   -0.769374    5.345721    0.021359
 H   -0.709266    2.960555   -0.486130
 H   -2.972088    1.357427   -0.982378
 H   -0.967012    2.187125   -3.130710
 H   -2.696931    1.946827   -3.282255
 H   -3.996176    3.508482   -1.269538
 H   -0.295614    4.406247   -3.251640
 H   -4.249110    5.882962   -0.660234
 H   -0.560669    6.793666   -2.666517
 H   -2.529168    7.540231   -1.346007
 H   -1.864323   -1.449238   -2.736531
