115 
6qtx_ligand_ani.xyz
 N   -0.195054   -1.254787    1.998837
 C   -1.457345   -1.642317    2.669073
 C   -2.185371   -2.649956    1.789100
 O   -2.055170   -3.862266    1.938633
 N   -2.933218   -2.108817    0.793049
 C   -3.376915   -2.929613   -0.328236
 C   -2.179354   -3.159641   -1.273346
 O   -2.049618   -2.534987   -2.328490
 C   -4.561009   -2.286748   -1.050756
 C   -5.785897   -2.180048   -0.170159
 C   -6.071401   -0.998787    0.517681
 C   -6.640229   -3.272150   -0.006815
 C   -7.186728   -0.908371    1.345748
 C   -7.757192   -3.186293    0.818107
 C   -8.033297   -2.002224    1.496849
 N   -1.273485   -4.071098   -0.851837
 C    0.010483   -4.209553   -1.493273
 C    1.173916   -3.779586   -0.593148
 O    1.042346   -3.466125    0.583750
 N    2.394297   -3.771202   -1.205457
 C    3.633767   -3.567594   -0.468660
 C    4.277360   -2.180947   -0.678660
 O    5.349704   -1.912221   -0.157853
 C    4.636245   -4.718032   -0.724281
 C    5.352252   -4.588319   -2.071663
 C    5.643316   -4.865517    0.417202
 N    3.595357   -1.270539   -1.448873
 C    3.815333    0.139537   -1.160520
 C    3.147545    0.423848    0.203032
 O    2.152595   -0.214993    0.535867
 C    3.282001    1.009421   -2.318806
 C    3.781516    2.452074   -2.242885
 C    1.755904    0.986041   -2.447127
 N    3.673639    1.344170    1.066674
 C    3.269542    1.225281    2.473997
 C    1.792999    1.566946    2.677096
 O    1.067609    0.864883    3.381467
 C    4.255311    2.132109    3.241490
 C    5.027939    2.897533    2.157168
 C    4.991632    1.965483    0.947661
 N    1.350901    2.678034    2.056104
 C   -0.021687    3.128316    2.181868
 C   -1.001167    2.311878    1.303778
 O   -1.850749    1.567857    1.781466
 C   -0.039450    4.625220    1.860062
 O    0.678493    4.827396    0.644697
 N   -0.851475    2.497186   -0.035510
 C   -1.848311    2.065099   -0.988512
 C   -1.720569    0.563906   -1.260223
 O   -1.123245   -0.206931   -0.533886
 C   -1.794299    2.909645   -2.279909
 C   -1.841794    4.396148   -2.015581
 C   -3.026668    5.014515   -1.611103
 C   -0.686727    5.178137   -2.128369
 C   -3.061822    6.379112   -1.336207
 C   -0.716688    6.541880   -1.857901
 C   -1.908218    7.146911   -1.460026
 O   -2.390834    0.172979   -2.337309
 H    0.339494   -2.086935    1.693772
 H   -0.398116   -0.676288    1.169806
 H    0.379829   -0.679623    2.631889
 H   -1.253916   -2.120357    3.629325
 H   -2.055971   -0.737683    2.816493
 H   -2.805416   -1.121310    0.610582
 H   -3.671210   -3.891868    0.101146
 H   -4.784631   -2.889430   -1.936729
 H   -4.275690   -1.293850   -1.416410
 H   -5.408353   -0.140507    0.406721
 H   -6.431064   -4.200799   -0.536422
 H   -7.395707    0.019491    1.872855
 H   -8.414315   -4.045328    0.930747
 H   -8.906028   -1.933738    2.141673
 H   -1.365526   -4.412861    0.101225
 H    0.174785   -5.253027   -1.796119
 H    0.000937   -3.593549   -2.399393
 H    2.474389   -4.112508   -2.151672
 H    3.340699   -3.578123    0.587171
 H    4.018171   -5.627837   -0.746917
 H    6.004540   -3.708035   -2.081872
 H    5.974514   -5.470980   -2.255842
 H    4.651058   -4.500129   -2.911151
 H    6.284970   -5.736765    0.243800
 H    6.270926   -3.974616    0.496090
 H    5.132307   -5.012890    1.376082
 H    2.620175   -1.510532   -1.576700
 H    4.897526    0.280735   -1.080487
 H    3.707526    0.550265   -3.220695
 H    3.443527    3.013973   -3.120195
 H    4.876808    2.506884   -2.223413
 H    3.391414    2.969629   -1.356612
 H    1.344962   -0.030270   -2.478253
 H    1.281354    1.516658   -1.612159
 H    1.454083    1.489340   -3.373299
 H    3.359101    0.185662    2.805643
 H    3.745876    2.796920    3.946335
 H    4.932886    1.504881    3.829225
 H    4.512455    3.832151    1.912734
 H    6.048198    3.146621    2.458632
 H    5.787953    1.204561    0.994938
 H    5.089297    2.503327    0.001738
 H    1.926772    3.133668    1.360575
 H   -0.345559    2.952008    3.206996
 H    0.444073    5.173555    2.679134
 H   -1.074303    4.983104    1.765900
 H    0.335462    5.619744    0.210833
 H   -0.189541    3.211025   -0.316200
 H   -2.838956    2.175740   -0.523475
 H   -0.872429    2.665845   -2.825101
 H   -2.624026    2.606100   -2.923774
 H   -3.933016    4.419019   -1.511377
 H    0.250941    4.710094   -2.418554
 H   -3.994406    6.845495   -1.027819
 H    0.189908    7.135331   -1.957941
 H   -1.931707    8.211649   -1.247791
 H   -2.282358   -0.809061   -2.435814
