52 
6quv_ligand_dft.xyz
 C   -1.060407    3.105010   -0.999530
 C   -0.608877    1.882690   -0.525182
 C    0.535421    1.765206    0.244429
 C   -0.322191   -0.457876   -0.192888
 C    1.626059   -1.378812   -1.578972
 C    2.169303   -0.161245    0.535631
 C    4.429590   -0.193391    1.391236
 C    3.932168   -1.279927   -0.695701
 C   -1.943938   -0.691993    1.801660
 C   -3.443929   -0.570904    1.519007
 C   -2.152316   -2.314019   -0.110856
 C   -4.962467    0.261884   -0.274593
 C   -0.312488    4.237330   -0.683088
 C    0.845786    4.134553    0.087139
 C    1.277901    2.895677    0.557069
 N   -1.228917    0.610791   -0.760408
 C    0.743659    0.321872    0.653533
 N    0.291265   -1.139556   -1.306543
 C    2.594883   -0.905791   -0.563667
 C    3.095010    0.177086    1.522032
 C    4.852501   -0.915481    0.276671
 O    1.934776   -1.986570   -2.585276
 C   -1.145950   -1.462670    0.702145
 N   -3.641860   -0.316239    0.061268
 C   -3.331506   -1.550994   -0.729015
 C   -0.163925   -2.446821    1.359275
 H   -1.955640    3.180036   -1.610349
 H    5.141081    0.078840    2.164336
 H    4.223569   -1.861477   -1.563846
 H   -1.829799   -1.195552    2.765609
 H   -1.544614    0.317671    1.935895
 H   -4.002222   -1.477175    1.771971
 H   -3.882808    0.263859    2.069001
 H   -1.642893   -2.881138   -0.895018
 H   -2.550360   -3.069781    0.574036
 H   -5.749886   -0.410639    0.072061
 H   -5.061815    1.232466    0.213236
 H   -5.034015    0.385277   -1.356626
 H   -0.633406    5.207735   -1.047482
 H    1.418610    5.026430    0.317794
 H    2.190822    2.816507    1.138785
 H   -1.286905    0.465186   -1.767505
 H    0.471442    0.232302    1.710392
 H   -0.310135   -1.581623   -1.989958
 H    2.771492    0.731695    2.399672
 H    5.893897   -1.201729    0.174839
 H   -2.853986    0.341386   -0.221605
 H   -4.232450   -2.170211   -0.748562
 H   -3.132462   -1.218681   -1.751469
 H   -0.711438   -3.185445    1.952922
 H    0.419296   -2.983894    0.606175
 H    0.537270   -1.942754    2.029681
