37 
6quw_ligand_dft.xyz
 C   -1.338657   -0.587369    1.201351
 C   -0.173603    1.478807    2.098061
 C    1.430740    0.510410   -0.725937
 C    1.958438   -0.795995    1.226470
 C   -1.521160    2.504327   -0.316631
 C    3.208514   -1.068085    0.671117
 C   -0.961080   -2.206186   -0.757326
 C   -0.300489    0.508597    0.917705
 C   -1.847520   -1.121751   -0.144801
 C    2.667453    0.250222   -1.296672
 C   -3.302325   -1.577691   -0.087439
 C    3.557668   -0.542630   -0.572674
 C    1.072129    0.001307    0.517774
 C   -0.767250    1.191152   -0.418834
 N    0.359602    1.243063   -1.300273
 N   -1.758535    0.131436   -1.023515
 H   -2.176543   -0.158561    1.765078
 H   -0.922530   -1.395447    1.808560
 H   -1.134045    1.931069    2.364859
 H    0.195966    0.935833    2.972702
 H    0.545899    2.273430    1.880512
 H    1.692351   -1.197097    2.200957
 H   -0.877421    3.265565    0.128981
 H   -1.829222    2.856389   -1.307436
 H   -2.410019    2.409182    0.314606
 H    3.914643   -1.688639    1.212116
 H    0.075466   -1.883711   -0.877021
 H   -1.353043   -2.525388   -1.729284
 H   -0.964181   -3.078670   -0.098823
 H    2.933633    0.645295   -2.271751
 H   -3.383027   -2.429916    0.592771
 H   -3.664872   -1.902581   -1.068217
 H   -3.961382   -0.789883    0.295509
 H    4.534724   -0.758827   -0.991977
 H    0.576259    2.146385   -1.702162
 H   -2.688322    0.542711   -1.135745
 H   -1.408962   -0.089312   -1.960700
