50 
6qwi_ligand_dft.xyz
 C    2.642435    0.356730    0.457891
 C    5.409742    0.171213   -0.081218
 C    9.023373    0.510856   -0.398606
 C   -5.336431    0.345029    0.711787
 C    3.216389   -0.748377   -0.177692
 C    2.403805   -1.825016   -0.559914
 C    6.807878   -0.258587   -0.485944
 C    9.852374    1.700888    0.040725
 C   -4.253622    0.249975    1.782504
 N   -5.624517   -0.993868    0.057203
 O   -5.328075    2.576190   -0.075397
 C    1.275046    0.369769    0.706247
 N   -3.005865   -0.254935    1.241911
 O   -7.296640    1.006554   -1.212862
 C   -5.784040   -0.772681   -1.436133
 N   -3.021969   -1.407682    0.550563
 O    4.525892   -0.870662   -0.463121
 C   -5.967389    0.725848   -1.563035
 N   -1.814547   -1.664842    0.159394
 O    7.666170    0.781441   -0.110835
 C   -5.024422    1.267397   -0.474850
 C    1.046807   -1.799704   -0.306479
 C    0.460169   -0.698879    0.334420
 C   -0.979046   -0.685550    0.606138
 C   -1.747082    0.229855    1.306979
 H    3.244900    1.204533    0.760623
 H    5.146981    1.107870   -0.588561
 H    5.370935    0.333338    1.003050
 H    9.148488    0.327071   -1.477816
 H    9.342349   -0.402357    0.129033
 H   -6.263628    0.696257    1.167490
 H    2.867264   -2.674023   -1.050316
 H    6.842878   -0.441584   -1.571697
 H    7.066865   -1.201709    0.020873
 H   10.912316    1.520329   -0.161440
 H    9.543595    2.602043   -0.496643
 H    9.727524    1.877067    1.112897
 H   -4.573562   -0.385013    2.614477
 H   -4.085111    1.256800    2.170511
 H   -4.786466   -1.603094    0.217188
 H   -6.455924   -1.427381    0.460092
 H   -4.815927    3.205462   -0.598061
 H    0.850868    1.241237    1.198569
 H   -7.357790    1.954705   -1.022279
 H   -6.640421   -1.336567   -1.802907
 H   -4.866480   -1.121778   -1.913359
 H   -5.710617    1.081389   -2.568821
 H   -3.975683    1.156552   -0.783582
 H    0.426257   -2.639883   -0.600264
 H   -1.506034    1.137253    1.838240
