53 
6qyn_ligand_ani.xyz
 C    3.290333    0.173024   -1.075587
 C    1.646958   -1.349539   -0.399971
 C    4.048776    1.458777   -1.226239
 C   -2.890957   -0.811334    0.788518
 C   -3.340987   -0.442015   -0.606360
 C   -3.039486    0.834437   -2.641017
 C    1.135264    1.199677   -0.362071
 C   -0.081068    2.703198    1.047910
 C    1.471224   -4.008147   -0.147277
 C    2.684054   -2.227222   -0.714390
 C   -2.643370    0.511123   -1.349602
 C   -4.440422   -1.070732   -1.193360
 C   -0.045408    3.099866   -1.315330
 C    0.742597    1.977448   -1.459741
 C    1.139977    0.825055    2.181266
 C    0.718060    1.566916    0.933647
Cl   -0.653839    3.219826    2.628665
 C   -0.464072    3.487993   -0.044079
 O   -1.228171    4.595532    0.068287
 C    2.018192    0.036917   -0.598135
 C    4.417535    2.064980    0.135724
 S    4.083966   -1.368335   -1.285069
 N    2.628183   -3.558271   -0.594981
 N    0.384183   -3.292099    0.177314
 C    0.461177   -1.986778    0.031870
 O   -0.605414   -1.228167    0.258295
 C   -1.763923   -1.855105    0.788653
 C   -1.505378   -2.327902    2.216979
 O   -0.654741   -1.917186    2.964498
 O   -2.411145   -3.255327    2.575322
 C   -4.139046    0.204921   -3.218011
 C   -4.837536   -0.751432   -2.488925
 H    3.426441    2.181278   -1.772421
 H    4.945182    1.290209   -1.829152
 H   -2.505937    0.073945    1.309661
 H   -3.730180   -1.208704    1.370146
 H   -2.480633    1.583099   -3.198745
 H    1.381738   -5.086195   -0.030055
 H   -1.771943    1.003104   -0.918929
 H   -5.000112   -1.816830   -0.631815
 H   -0.369345    3.679045   -2.173946
 H    1.056707    1.664425   -2.453277
 H    0.265770    0.445479    2.718994
 H    1.796391   -0.018583    1.955127
 H    1.677217    1.497662    2.860230
 H   -1.442040    4.735252    1.003330
 H    5.067764    1.390140    0.701662
 H    3.518274    2.249723    0.733906
 H    4.940561    3.016503    0.000939
 H   -2.039665   -2.720641    0.178676
 H   -2.202862   -3.500077    3.492139
 H   -4.448889    0.456789   -4.229066
 H   -5.698376   -1.250262   -2.927980
