53 
6qz8_ligand_ani.xyz
 C    3.294427    0.200406   -1.071910
 C    1.662766   -1.337162   -0.401426
 C    4.035863    1.494736   -1.236229
 C   -2.883705   -0.837035    0.777424
 C   -3.338363   -0.452278   -0.611771
 C   -3.040228    0.841316   -2.636202
 C    1.131353    1.206858   -0.351657
 C   -0.101497    2.686861    1.068594
 C    1.506643   -3.997747   -0.158938
 C    2.708454   -2.205345   -0.713348
 C   -2.639957    0.504368   -1.349556
 C   -4.444705   -1.068830   -1.198635
 C   -0.062766    3.105904   -1.290882
 C    0.734586    1.991147   -1.443296
 C    1.133619    0.810013    2.188759
 C    0.707810    1.558734    0.946453
Cl   -0.683613    3.183241    2.652467
 C   -0.488201    3.478559   -0.017177
 O   -1.261914    4.578431    0.103485
 C    2.023524    0.052811   -0.595025
 C    4.382680    2.133546    0.116417
 S    4.103478   -1.333411   -1.276085
 N    2.662681   -3.537084   -0.598375
 N    0.412338   -3.291643    0.162456
 C    0.479537   -1.985317    0.021704
 O   -0.594539   -1.236423    0.245125
 C   -1.751625   -1.875499    0.764525
 C   -1.493460   -2.365803    2.187192
 O   -2.392177   -3.306069    2.529362
 O   -0.649108   -1.957469    2.942941
 C   -4.145908    0.222913   -3.213526
 C   -4.846642   -0.735356   -2.489209
 H    3.408564    2.197921   -1.801496
 H    4.940301    1.329440   -1.827887
 H   -2.502861    0.043545    1.309625
 H   -3.720417   -1.245843    1.354736
 H   -2.479896    1.591751   -3.190002
 H    1.425274   -5.076932   -0.046591
 H   -1.764999    0.988900   -0.918025
 H   -5.006146   -1.816340   -0.640779
 H   -0.388665    3.690753   -2.144985
 H    1.052920    1.688702   -2.438689
 H    1.668045    1.480305    2.872210
 H    1.794398   -0.028576    1.957158
 H    0.261274    0.422334    2.723686
 H   -1.479553    4.707403    1.039200
 H    4.882711    3.094859   -0.034912
 H    5.047146    1.486107    0.697542
 H    3.477678    2.308000    0.708689
 H   -2.022192   -2.734004    0.142376
 H   -2.184354   -3.562654    3.443048
 H   -4.458836    0.485039   -4.221060
 H   -5.713076   -1.224680   -2.927988
