53 
6qzb_ligand_xtb.xyz
 N    0.595207    1.353257   -0.043701
 C    1.724634    2.218114    0.149041
 C    2.309557    2.087492    1.546945
 C   -0.811722   -1.321680    0.408601
 C    1.270634   -2.983362    1.178822
 C    0.710486   -2.114336    2.098033
 C   -0.333523   -1.292335    1.714567
 C    0.793346   -3.018860   -0.119576
 C   -0.239792   -2.187933   -0.527738
 C   -0.729606   -2.199751   -1.943275
 C    3.207577    0.519238   -0.971843
 C    3.013657   -1.641368   -2.018099
 C    3.902147   -2.174700   -1.101118
 C    4.438995   -1.364559   -0.115431
 C    4.098398   -0.025270   -0.054784
 C   -1.927732   -0.430512    0.030802
 C   -1.779037    0.966210   -0.234461
 C   -3.220569   -0.837267   -0.066810
 C   -3.768831   -2.198225    0.198474
 C   -4.565350   -2.227209    1.503906
 S   -4.316961    0.463514   -0.489471
 C   -3.000443    1.590394   -0.525388
 N   -3.140295    2.886012   -0.784074
 C   -2.024129    3.578052   -0.737976
 N   -0.806454    3.126081   -0.485074
 C   -0.652359    1.823235   -0.243015
 O    3.288992    2.666640    1.930744
 O    1.611398    1.253063    2.323419
 C    2.826951    1.971821   -0.904892
 C    2.661748   -0.305555   -1.946896
 H    0.700714    0.379395    0.201607
 H    1.354263    3.246115    0.040314
 H    2.080106   -3.634874    1.471522
 H    1.077641   -2.082461    3.112762
 H   -0.784885   -0.614957    2.424872
 H    1.230527   -3.704799   -0.829675
 H   -1.764094   -2.537135   -1.992043
 H   -0.120758   -2.859658   -2.555333
 H   -0.692498   -1.195531   -2.363883
 H    2.598766   -2.264180   -2.796822
 H    4.180675   -3.216711   -1.156752
 H    5.135250   -1.774463    0.601419
 H    4.537901    0.608968    0.701179
 H   -2.940580   -2.907692    0.261842
 H   -4.422846   -2.495830   -0.625110
 H   -5.395254   -1.526343    1.453676
 H   -4.960111   -3.224280    1.682026
 H   -3.927153   -1.951321    2.340304
 H   -2.105850    4.639250   -0.931111
 H    2.007777    1.205233    3.207911
 H    2.452476    2.302989   -1.873803
 H    3.689747    2.579995   -0.629693
 H    1.967010    0.107191   -2.664377
