33 
6r0k_ligand_dft.xyz
 O   -4.993179   -2.594320    0.334663
 C   -5.053940   -1.443938   -0.066448
 N   -6.238018   -0.910513   -0.498428
 O   -7.272472   -1.824691   -0.647106
 C   -3.922956   -0.476443   -0.076363
 C   -3.965405    0.937506    0.072877
 C   -2.661035    1.306934   -0.021841
 C   -1.950053    2.610943    0.086138
 C   -0.928682    2.652356    1.239231
 N    0.215157    1.787314    1.031708
 C    1.184218    2.159363    0.141272
 O    1.171200    3.245551   -0.419689
 C    2.278245    1.162113   -0.104285
 C    2.999249    1.271561   -1.293124
 C    4.019365    0.377943   -1.575949
 C    4.343055   -0.628739   -0.667545
Cl    5.628413   -1.727045   -1.055986
 C    3.638108   -0.730428    0.533989
Cl    4.020652   -1.949335    1.710314
 C    2.609433    0.165084    0.810093
 O   -1.908711    0.205961   -0.218168
 N   -2.700327   -0.916347   -0.248909
 H   -6.233320   -0.257204   -1.271770
 H   -6.851965   -2.656901   -0.344666
 H   -4.823789    1.564299    0.259555
 H   -2.699060    3.393894    0.238159
 H   -1.422725    2.837277   -0.846556
 H   -1.405255    2.371734    2.182777
 H   -0.555672    3.673866    1.332388
 H    0.080526    0.799906    1.194394
 H    2.749145    2.066653   -1.986587
 H    4.578201    0.450440   -2.502228
 H    2.099824    0.085805    1.764500
