28 
6r0s_ligand_ani.xyz
 O   -0.353155    3.080795   -0.609812
 C    0.056092    1.952215   -0.451304
 N   -0.729406    0.800755   -0.427420
 C   -2.173990    0.842802   -0.352480
 C   -2.897838   -0.164931   -1.250224
 C   -3.784168   -0.980308   -0.318904
 O   -4.553855   -1.857254   -0.619222
 N   -3.562206   -0.521332    0.974477
 C   -2.648218    0.515206    1.080779
 O   -2.305397    1.059737    2.095410
 C    1.447454    1.477446   -0.244773
 C    1.442251    0.087618   -0.126585
 C    0.017737   -0.358757   -0.142723
 O   -0.490693   -1.432102    0.068756
 C    2.599607    2.236162   -0.131629
 C    3.799987    1.575599    0.110436
 C    3.831388    0.182449    0.212411
 C    2.666867   -0.553152    0.057077
 N    2.808054   -2.015267    0.025899
 O    2.094367   -2.630356   -0.743131
 O    3.660103   -2.504097    0.745937
 H   -2.448138    1.874087   -0.579786
 H   -3.519016    0.318912   -2.005252
 H   -2.205767   -0.836368   -1.759826
 H   -4.026162   -0.924131    1.779346
 H    2.547343    3.317016   -0.222037
 H    4.722329    2.136985    0.220303
 H    4.760332   -0.343462    0.400556
