28 
6r0u_ligand_xtb.xyz
 C   -4.027254    0.852299   -0.107657
 C   -4.286547   -0.499111   -0.133159
 C   -3.260263   -1.450100   -0.131916
 C    3.610023    0.361322   -0.686469
 C   -1.968670   -0.979370   -0.103319
 C   -0.675474   -1.699962   -0.076292
 C    1.710157   -0.952859    0.046048
 C    2.514478   -0.555346   -1.194098
 C    2.299564   -0.101360    1.180232
 N   -2.420845    2.668838   -0.094175
 N    0.295666   -0.702280   -0.059840
 C   -2.706864    1.351032   -0.082791
 N    3.388916    0.550499    0.662420
 O    0.412667    1.598631   -0.004677
 C   -0.245529    0.580546   -0.040062
 C   -1.691170    0.393277   -0.081567
 O   -0.435769   -2.879581   -0.073408
 O    4.513294    0.845138   -1.305917
 O    1.903003   -0.027875    2.307813
 H   -4.845144    1.558017   -0.105352
 H   -5.312467   -0.835272   -0.151725
 H   -3.470968   -2.506591   -0.148606
 H    1.815609   -2.016384    0.291405
 H    1.900776    0.006601   -1.900736
 H    2.943468   -1.404335   -1.724422
 H   -3.145926    3.351641    0.029753
 H   -1.458017    2.944791    0.012714
 H    3.946250    1.189425    1.213946
