28 
6r0u_ligand_dft.xyz
 C   -4.097873    0.777020    0.008009
 C   -4.307054   -0.592951   -0.028394
 C   -3.246911   -1.511644   -0.109475
 C    3.760790    0.394438   -0.545438
 C   -1.980758   -0.974277   -0.146171
 C   -0.651922   -1.653583   -0.203421
 C    1.712402   -0.832058   -0.133384
 C    2.563832   -0.220821   -1.255078
 C    2.291716   -0.236185    1.163059
 N   -2.555038    2.669294   -0.044614
 N    0.295996   -0.617778   -0.220842
 C   -2.794617    1.325976   -0.035670
 N    3.501624    0.337380    0.820866
 O    0.307320    1.693582   -0.077688
 C   -0.304474    0.641822   -0.129124
 C   -1.752820    0.400450   -0.110031
 O   -0.388515   -2.831328   -0.232110
 O    4.754051    0.863014   -1.040498
 O    1.805873   -0.287219    2.263162
 H   -4.949835    1.449127    0.065848
 H   -5.327602   -0.962220    0.009275
 H   -3.412847   -2.582290   -0.134794
 H    1.846591   -1.917737   -0.078988
 H    2.030506    0.585796   -1.765616
 H    2.895782   -0.942784   -2.003087
 H   -3.276142    3.295492    0.275102
 H   -1.598345    2.968280    0.089620
 H    4.110131    0.770555    1.502551
