31 
6r0v_ligand_ani.xyz
 C    3.208587   -1.772756   -0.467772
 C   -1.324218    1.287832   -0.063749
 C   -1.218848   -0.065927    0.309840
 C   -2.354338   -0.866479    0.307967
 C    0.070708   -0.734338    0.698354
 C   -2.520352    1.768560   -0.602028
 C   -3.640512    0.955956   -0.663038
 C   -3.538880   -0.343780   -0.179847
 C   -0.208821    2.275755    0.095321
 N    4.611411    0.089243   -0.252739
 N    1.140239   -0.403215   -0.088759
 C    4.623615   -1.250621   -0.641601
 N   -4.726833   -1.202906   -0.202309
 C    2.479308   -0.684965    0.328919
 C    3.397094    0.542730    0.220766
 O    5.589210   -1.842246   -1.051984
 O    3.145633    1.692012    0.514158
 O    0.138268   -1.545822    1.605700
 O   -5.757316   -0.727697   -0.646839
 O   -4.614070   -2.339206    0.223787
 O    0.011667    3.158554   -0.700726
 O    0.512973    2.083336    1.208445
 H    3.214848   -2.739064    0.035833
 H    2.765122   -1.903213   -1.457884
 H   -2.305525   -1.886749    0.665929
 H   -2.555063    2.790699   -0.961715
 H   -4.583011    1.309881   -1.062424
 H    5.423785    0.686525   -0.352044
 H    1.005787    0.300283   -0.799799
 H    2.436100   -0.968761    1.383542
 H    1.373271    2.525283    1.076094
