28 
6r11_ligand_ani.xyz
 C   -2.514455    0.322210    1.167454
 C    0.063582   -0.649659   -0.086547
 C    1.533817   -0.421656   -0.065687
 C    4.111756    0.526311   -0.080319
 C    1.770554    0.939228   -0.187141
 C    0.465702    1.642325   -0.285575
 C    2.560398   -1.342814    0.050642
 C    3.876175   -0.861685    0.045892
 C    3.067823    1.431578   -0.197137
 N   -3.492724   -0.593954    0.812448
 N   -0.501775    0.630093   -0.205747
 C   -1.927156    0.883625   -0.147449
 N    4.950534   -1.743769    0.106367
 C   -3.682815   -0.754914   -0.554129
 C   -2.740574    0.210500   -1.259003
 O   -2.201673    0.617593    2.289870
 O   -4.472695   -1.510503   -1.060855
 O   -0.563232   -1.682086   -0.031725
 O    0.233555    2.823761   -0.408482
 H    5.139007    0.882374   -0.089584
 H    2.343720   -2.405535    0.134959
 H    3.253842    2.496822   -0.292612
 H   -4.002160   -1.137416    1.498560
 H   -2.027577    1.969909   -0.151766
 H    5.814043   -1.345169    0.444481
 H    4.755953   -2.635788    0.538073
 H   -3.333909    0.927117   -1.830685
 H   -2.111641   -0.339315   -1.959383
