29 
6r12_ligand_dft.xyz
 C    1.910562   -1.336430   -0.387607
 C   -0.161131    1.716908   -0.043332
 C   -1.579500    1.907494    0.494625
 C   -3.501723   -1.322302    1.138130
 C   -2.496038    0.722572    0.309763
 C   -3.122353    0.506148   -0.921016
 C   -3.929745   -0.607682   -1.120509
 C   -4.120146   -1.526657   -0.090957
 C   -2.695808   -0.203597    1.336023
 N    3.251010   -1.464085   -0.090751
 N    0.343266    0.452357    0.044153
 C    1.630603    0.159789   -0.530616
 C    3.895614   -0.258472    0.205953
 C    2.839689    0.832835    0.131283
 O    5.061645   -0.160337    0.488967
 O    1.109702   -2.232823   -0.507735
 O    0.505227    2.649665   -0.461601
 H   -1.481476    2.153712    1.558846
 H   -1.972554    2.798207   -0.001885
 H   -3.645905   -2.033333    1.946037
 H   -2.973885    1.220184   -1.727532
 H   -4.410738   -0.760349   -2.081970
 H   -4.748230   -2.398316   -0.247046
 H   -2.217197   -0.045973    2.299868
 H    3.710602   -2.360974   -0.005580
 H   -0.289859   -0.330687    0.156562
 H    1.632240    0.390981   -1.605905
 H    3.206678    1.707286   -0.404923
 H    2.597654    1.145666    1.152217
