42 
6r1w_ligand_ani.xyz
 C   -2.516564    0.679810   -0.074231
 C   -2.414786    0.039876    1.327405
 C   -3.137530   -1.317489    1.399544
 C    4.072341   -1.221111   -0.104610
 C   -3.095914   -2.101006    0.081335
 C   -3.703398   -1.270818   -1.074465
 C   -3.802616    0.234739   -0.762796
 C    1.677940   -0.488480   -0.051816
 C    4.525156    0.223417   -0.058323
 C    3.493506    1.153450    0.571679
 N    1.146402    1.864374    0.489379
 N   -1.666862   -2.507451   -0.235361
 C   -2.301100    2.187931   -0.012346
 N    2.692326   -1.421117   -0.098560
 C    2.128842    0.979637   -0.090142
 C    0.023038    2.121023   -0.257087
 O   -1.007934    2.469165    0.547830
 O   -0.036997    2.054975   -1.466512
 O    0.511496   -0.841518   -0.016823
 O    4.830344   -2.163445   -0.168805
 H   -1.697643    0.300548   -0.695754
 H   -1.358305   -0.075678    1.591095
 H   -2.859316    0.709228    2.077135
 H   -4.192895   -1.160693    1.651088
 H   -2.718693   -1.931426    2.205194
 H   -3.666439   -3.023842    0.204900
 H   -3.057863   -1.415089   -1.949833
 H   -4.693029   -1.660621   -1.335996
 H   -3.959349    0.795474   -1.693319
 H   -4.670344    0.440739   -0.121534
 H    5.477491    0.250325    0.476703
 H    4.734882    0.527009   -1.092135
 H    3.802490    2.197273    0.468017
 H    3.395244    0.942983    1.644220
 H    0.943027    1.736733    1.470439
 H   -1.319445   -3.163148    0.489983
 H   -1.615277   -2.988161   -1.151736
 H   -1.035638   -1.682587   -0.246844
 H   -3.011725    2.671887    0.662452
 H   -2.364533    2.644317   -1.003658
 H    2.402963   -2.393176   -0.119679
 H    2.192576    1.247979   -1.149337
