42 
6r1w_ligand_xtb.xyz
 C   -2.612619    0.673653   -0.055676
 C   -2.370978    0.013163    1.311283
 C   -3.053120   -1.358994    1.405330
 C    4.209389   -1.123097   -0.068074
 C   -3.133920   -2.024554    0.038998
 C   -3.980207   -1.188440   -0.931332
 C   -3.998817    0.299438   -0.559810
 C    1.795565   -0.506038    0.027228
 C    4.583514    0.327435   -0.176280
 C    3.543516    1.244255    0.456264
 N    1.150219    1.829192    0.350146
 N   -1.729822   -2.227155   -0.477359
 C   -2.340385    2.179464    0.017865
 N    2.829488   -1.380643    0.027657
 C    2.180054    0.959970   -0.160164
 C   -0.038718    1.874936   -0.306614
 O   -1.004866    2.384764    0.478978
 O   -0.192019    1.482113   -1.437847
 O    0.643368   -0.894740    0.145570
 O    4.968377   -2.047184   -0.069224
 H   -1.895643    0.304532   -0.794426
 H   -1.299315   -0.079947    1.493548
 H   -2.767177    0.659121    2.095161
 H   -4.071406   -1.248131    1.775561
 H   -2.522004   -1.996761    2.112630
 H   -3.572920   -3.022292    0.127455
 H   -3.597251   -1.305646   -1.946995
 H   -4.999282   -1.574093   -0.930729
 H   -4.263903    0.889352   -1.435516
 H   -4.743464    0.497020    0.210427
 H    5.564687    0.459944    0.281245
 H    4.691290    0.555775   -1.241258
 H    3.809151    2.287228    0.285871
 H    3.502340    1.076078    1.535177
 H    1.155894    2.073923    1.328226
 H   -1.319814   -3.075854   -0.076387
 H   -1.723541   -2.303572   -1.500124
 H   -1.089588   -1.445095   -0.210868
 H   -2.974966    2.684706    0.746098
 H   -2.466784    2.635780   -0.968684
 H    2.605516   -2.368434    0.126200
 H    2.210452    1.119842   -1.249644
