26 
6r1x_ligand_ani.xyz
 C    1.078241    0.261729   -0.555647
 C   -1.192569    1.089325   -0.440761
 C   -2.648352    0.787759   -0.333484
 C   -3.253989   -0.207342    0.325156
 C   -4.730157   -0.442405    0.126926
 C   -2.602180   -1.136777    1.319739
 N    3.042952   -0.931525   -0.140668
 N   -0.315437    0.049171   -0.268232
 C    1.884973    0.998464    0.518609
 O    1.295227   -2.100458   -1.123598
 C    1.774689   -1.088288   -0.669654
 C    3.221420    0.275024    0.543171
 O    4.248538    0.624578    1.065800
 O   -0.800723    2.219977   -0.694677
 H    1.191756    0.788393   -1.510316
 H   -3.261041    1.528132   -0.847635
 H   -4.913438   -1.456190   -0.247484
 H   -5.160016    0.271699   -0.581753
 H   -5.265301   -0.352103    1.079349
 H   -1.618089   -0.785863    1.639339
 H   -3.238868   -1.235433    2.206769
 H   -2.505692   -2.145281    0.899487
 H    3.752884   -1.653770   -0.163195
 H   -0.629053   -0.904369   -0.409270
 H    1.411639    0.882611    1.497307
 H    2.005832    2.060930    0.315176
