55 
6r4k_ligand_ani.xyz
 C   -3.381280   -1.745594   -0.578116
 C    2.357506   -1.766580    0.927450
 C   -4.030247    1.157519    1.487834
 C   -4.933846    1.551716    0.313682
 C   -4.894966    0.305722   -0.582441
 C    2.072894   -1.407400   -1.443058
 C    1.535886   -1.788303   -0.206800
 C    0.143523   -2.112401   -0.054547
 C   -0.918181   -1.990764   -1.078589
 C    3.661134   -1.298918    0.843119
 C    4.164589   -0.868399   -0.384066
 C    3.376531   -0.950350   -1.530793
 C    5.623011    0.883174    0.219763
 C    4.784797    2.053826   -0.275765
 C    2.499672    2.704246   -0.502369
 C    1.169073    1.970421   -0.499067
 C   -3.461705   -0.217539   -0.435314
 N   -2.983518    0.267764    0.901827
 N   -2.069185   -2.285941   -0.244609
 N   -1.698729   -2.351048    1.046688
 N   -0.403692   -2.332316    1.140916
 N    0.909968    1.467735    0.858151
 N   -0.235796    0.736600    0.994584
 N   -0.466829    0.294157    2.129937
 O   -5.138058    0.591175   -1.952565
 O   -4.354029    2.648501   -0.364252
 O    5.420567   -0.324955   -0.500886
 O    3.448499    1.860254    0.111686
 H   -3.614596   -2.026462   -1.609053
 H   -4.109743   -2.224300    0.084434
 H    1.960721   -2.100205    1.882877
 H   -4.588695    0.618346    2.254051
 H   -3.561754    2.034609    1.926446
 H   -5.952613    1.792784    0.645205
 H   -5.602941   -0.447982   -0.207505
 H    1.466544   -1.440312   -2.345893
 H   -0.963396   -0.966504   -1.498754
 H   -0.815251   -2.695437   -1.920145
 H    4.293967   -1.269682    1.726970
 H    3.795747   -0.618579   -2.476416
 H    6.684618    1.114894    0.089168
 H    5.433166    0.731845    1.292087
 H    5.185333    2.986293    0.157179
 H    4.872830    2.116348   -1.373692
 H    2.419414    3.652449    0.051244
 H    2.796801    2.939732   -1.536092
 H    1.205844    1.137440   -1.216858
 H    0.363872    2.652499   -0.791775
 H   -2.845637    0.258101   -1.199069
 H   -2.096330    0.786587    0.807685
 H   -2.763229   -0.551958    1.497680
 H    1.734123    0.969104    1.205428
 H    0.306301   -0.289869    2.469498
 H   -6.089193    0.703126   -2.078719
 H   -4.507612    2.476419   -1.305837
