49 
6r5f_ligand_xtb.xyz
 C    0.659846    1.824104    0.212540
 C    0.661404    0.335174    0.500366
 C   -0.793722   -2.569832   -1.064601
 C   -2.482805   -0.073477   -0.427187
 C   -3.624700    0.315440   -1.116714
 C   -4.823033    0.438257   -0.434493
 C   -4.928183    0.187244    0.923417
 C    4.018377   -2.815988    1.096400
 C    3.549783   -1.674046    0.296003
 C    3.276087    0.328966   -0.334164
 C    2.618867    2.385779   -1.310261
 C    1.101282    2.150159   -1.232781
 C    1.553826    2.573306    1.216789
 C    3.056084    2.241115    1.054671
 C   -1.192614   -1.499407   -2.074279
 C   -1.192296   -0.229532   -1.210101
 C   -3.774883   -0.189314    1.584325
 C   -2.557045   -0.325633    0.934673
 F   -5.909306    0.811218   -1.111956
 F   -3.820810   -0.441396    2.895775
 N    2.733358   -1.694522   -0.716963
 N    2.580045   -0.407359   -1.152524
 N    3.317688    1.670926   -0.261803
 N   -0.044154   -0.466647   -0.360287
 N    0.205356   -1.875115   -0.232575
 O    3.941646   -0.421335    0.574241
 O    1.254343   -0.202686    1.416507
 H   -0.373245    2.162036    0.352827
 H   -1.651903   -2.864201   -0.457005
 H   -0.352798   -3.450681   -1.527643
 H   -3.594460    0.528429   -2.173329
 H   -5.866744    0.287343    1.442568
 H    5.106862   -2.845089    1.090974
 H    3.628471   -3.742423    0.686999
 H    3.698139   -2.697089    2.130831
 H    2.863857    3.440451   -1.179611
 H    3.002593    2.052942   -2.274628
 H    0.860562    1.327529   -1.900820
 H    0.583295    3.045024   -1.575429
 H    1.243079    2.328344    2.231926
 H    1.393453    3.640341    1.063156
 H    3.376348    1.523259    1.808739
 H    3.657517    3.146180    1.160239
 H   -2.160922   -1.696894   -2.525022
 H   -0.439921   -1.415359   -2.857538
 H   -1.043564    0.659357   -1.824585
 H   -1.696867   -0.601533    1.524398
 H    0.176331   -2.136756    0.763960
 H    1.289335   -2.032312   -0.559910
