54 
6r7d_ligand_ani.xyz
 C    3.575247   -2.792587   -2.225304
 C    4.371081   -3.684778   -1.474996
 C    4.507281   -3.517276   -0.125350
 C    2.471875   -0.421562    0.480405
 C    2.564813   -0.316122    1.849545
 C    3.317398   -1.252376    2.589459
 C    3.961605   -2.284697    1.961866
 C    0.426700    0.716676   -0.137054
 C   -0.372559   -0.394478    0.115408
 C   -2.255239    0.846814    0.045020
 C   -3.758547    0.951511    0.120146
 C   -5.916117   -0.412391   -0.005673
 C   -6.345076   -1.815856   -0.235450
 C   -0.374518    4.271440   -0.534971
 C    4.659088    2.166048    0.621403
 C    4.580324    3.228064   -0.442094
 C    3.861224   -2.444249    0.550438
 C    3.093904   -1.522152   -0.203251
 C    2.950094   -1.741104   -1.602593
 N    1.810690    0.580573   -0.268422
 N   -1.703332   -0.345379    0.209897
 C   -4.518091   -0.246651    0.579277
 C   -5.722295   -0.001319    1.426021
 O   -6.007966   -2.751750    0.453818
 O   -7.159296   -1.956873   -1.297609
 O   -4.320256    1.982335   -0.175988
 N   -1.606525    1.994192   -0.179311
 C   -0.292919    1.933702   -0.263942
 O    0.386340    3.069324   -0.457521
 C    2.669199    1.546846   -0.939524
 C    3.335208    2.521883    0.004241
 H    3.463174   -2.937246   -3.295691
 H    4.867757   -4.511723   -1.977017
 H    5.108494   -4.208547    0.460489
 H    2.064355    0.497637    2.373718
 H    3.382293   -1.146501    3.670645
 H    4.549339   -3.002841    2.528552
 H    0.087965   -1.373850    0.244768
 H   -6.233445    0.340727   -0.720461
 H   -0.954504    4.426018    0.379987
 H   -1.064944    4.239608   -1.383482
 H    0.359572    5.067223   -0.664616
 H    5.098535    1.208299    0.344533
 H    4.850110    2.472804    1.646674
 H    4.978092    2.995487   -1.427535
 H    4.714420    4.264469   -0.143941
 H    2.329231   -1.059227   -2.174467
 H   -3.951511   -1.155513    0.736069
 H   -5.948047   -0.745801    2.182551
 H   -5.951261    1.032339    1.664472
 H   -7.374039   -2.903781   -1.349210
 H    3.457523    0.976512   -1.451514
 H    2.083333    2.065498   -1.701861
 H    2.649069    3.096099    0.622429
