54 
6r7d_ligand_xtb.xyz
 C    3.791486   -2.469977   -2.396910
 C    4.509798   -3.455472   -1.702393
 C    4.521400   -3.463854   -0.336217
 C    2.439085   -0.474026    0.441103
 C    2.416374   -0.524987    1.812394
 C    3.095004   -1.540130    2.498796
 C    3.796710   -2.489287    1.809762
 C    0.459612    0.749232   -0.147715
 C   -0.347642   -0.323284    0.269152
 C   -2.250080    0.877333    0.064299
 C   -3.722254    0.986269    0.187072
 C   -5.789428   -0.517437    0.084263
 C   -6.141909   -1.922008   -0.209495
 C   -0.518337    4.121927   -1.230820
 C    4.209108    2.281315    1.331070
 C    4.374755    3.361330    0.306694
 C    3.825856   -2.481194    0.399741
 C    3.126057   -1.466205   -0.304976
 C    3.115738   -1.496768   -1.715674
 N    1.808632    0.597235   -0.251334
 N   -1.658584   -0.268296    0.370832
 C   -4.399519   -0.253158    0.651928
 C   -5.616002   -0.107213    1.513690
 O   -5.840944   -2.879961    0.454610
 O   -6.866421   -2.026609   -1.335732
 O   -4.325647    2.007561   -0.067246
 N   -1.593930    1.956882   -0.362887
 C   -0.291738    1.914632   -0.487608
 O    0.327462    3.020903   -0.943561
 C    2.719777    1.633752   -0.707703
 C    3.083856    2.605208    0.394996
 H    3.772862   -2.489296   -3.476516
 H    5.043221   -4.212670   -2.257657
 H    5.059237   -4.228928    0.204862
 H    1.876035    0.229879    2.364063
 H    3.066568   -1.554772    3.577827
 H    4.333277   -3.265949    2.334688
 H    0.101978   -1.273227    0.525264
 H   -6.176809    0.207001   -0.619132
 H   -1.071013    4.424819   -0.339913
 H   -1.237539    3.860984   -2.009000
 H    0.141839    4.918980   -1.566161
 H    4.743768    1.354554    1.184191
 H    4.115327    2.564542    2.368248
 H    5.018598    3.166326   -0.537499
 H    4.392324    4.388507    0.636132
 H    2.548389   -0.749394   -2.250380
 H   -3.755764   -1.106064    0.809107
 H   -5.781080   -0.859615    2.269520
 H   -5.920732    0.894963    1.774280
 H   -7.085578   -2.956231   -1.506126
 H    3.627206    1.136036   -1.061174
 H    2.263227    2.167537   -1.541894
 H    2.229977    3.130160    0.803720
