55 
6r7j_ligand_ani.xyz
 C   -8.317687   -3.696897   -0.148501
 C   -7.040913   -2.877861   -0.270995
 O   -8.279044   -0.597458   -0.752705
 O   -7.675537   -1.179556    1.648432
 C   -5.461309    0.181530   -1.208461
 C   -4.227483    0.803393   -1.354749
 C   -3.333206    0.872508   -0.286836
 C   -3.673987    0.290878    0.935877
 C   -4.905696   -0.327325    1.096825
 C   -2.040159    1.631247   -0.445932
 C   -1.334200    3.937290    0.063236
 C   -1.507995    5.144218    0.955112
 C    1.677977    0.842068   -0.452051
 C    1.970009   -0.461758   -0.048807
 C    3.295394   -0.860675    0.065324
 C    4.036461    1.319503   -0.610476
 C    6.143116   -0.733034    1.380739
 S   -7.358814   -1.179595    0.221917
 C   -5.786726   -0.379235    0.020863
 N   -2.041961    2.830363    0.395312
 O   -0.571230    3.951514   -0.903210
 C   -0.791378    0.757025   -0.146357
 O   -0.863938   -0.302267    0.449485
 N    0.367064    1.315921   -0.609688
 C    4.336050    0.020678   -0.211241
 C    2.719516    1.731547   -0.732615
 C    5.784598   -0.404025   -0.087436
 O    6.619384    0.645488   -0.493055
 C    6.087310   -1.612028   -1.006365
 F    5.642136   -1.390056   -2.246444
 F    7.414202   -1.818487   -1.078054
 F    5.524261   -2.745684   -0.567799
 F    7.455058   -0.999893    1.492147
 F    5.867819    0.298955    2.184048
 F    5.468253   -1.795708    1.839911
 H   -8.132155   -4.731865   -0.449952
 H   -8.674923   -3.686356    0.884910
 H   -9.098355   -3.275311   -0.787735
 H   -6.245804   -3.247741    0.382840
 H   -6.672377   -2.838318   -1.300271
 H   -6.176224    0.145557   -2.025261
 H   -3.962651    1.252085   -2.310206
 H   -2.957887    0.294232    1.752326
 H   -5.198368   -0.758289    2.049269
 H   -1.956215    1.983796   -1.479712
 H   -2.415143    5.107563    1.564883
 H   -1.525028    6.035441    0.324056
 H   -0.640677    5.223697    1.618343
 H    1.163729   -1.144298    0.180117
 H    3.503931   -1.874981    0.388958
 H    4.855788    1.998343   -0.828441
 H   -2.674969    2.848731    1.182000
 H    0.282585    2.264095   -0.967255
 H    2.490526    2.750232   -1.041939
 H    7.538744    0.344738   -0.435751
