17 
6r7r_ligand_ani.xyz
 N   -0.726384    1.700051    0.133714
 C   -0.647094    0.382409    0.839170
 C   -1.440177   -0.620588    0.014416
 O   -1.214534   -1.797460   -0.094745
 C    0.785876   -0.089068    1.076994
 C    1.660898    0.018554   -0.146465
 O    2.783928   -0.700383   -0.035112
 O    1.422548    0.690138   -1.130624
 O   -2.494497   -0.009288   -0.572485
 H   -0.598724    2.485773    0.784846
 H   -1.652645    1.748960   -0.316838
 H    0.015374    1.690201   -0.596854
 H   -1.167697    0.451714    1.798862
 H    0.778995   -1.128048    1.409204
 H    1.265194    0.499334    1.867778
 H    3.280931   -0.563414   -0.859843
 H   -2.973327   -0.696774   -1.064111
