67 
6r8l_ligand_ani.xyz
 C   -2.614356    0.478022   -0.069077
 C   -0.451185   -0.621346   -0.075099
 O   -0.956550   -1.717120   -0.289139
 C   -5.400959    1.089656   -0.729260
 C   -5.015184    3.455069   -0.222272
 C   -6.522125    3.212435   -0.271978
 C   -6.653764    1.920063   -1.085064
 C   -5.668458   -0.005679    0.297327
 C   -5.699110   -1.369184   -0.055053
 C   -6.028699   -2.322519    0.912423
 C   -6.294428   -1.955857    2.224450
 C   -3.914391   -2.956317   -1.481486
 C    3.193446   -1.297980    0.156146
 C    3.518074   -1.217708    1.512929
 C    5.818400   -0.702789    0.973362
 C    6.584789   -0.534877   -1.427616
 C    8.004013    1.508791   -0.010868
 C    1.776827   -1.566547   -0.275526
 C    6.737927    1.763152   -0.846476
 N   -1.185579    0.523676    0.027873
 N    0.910101   -0.454506    0.090626
 C   -3.143594    1.906016    0.022401
 N   -4.456419    2.105364   -0.269938
 O   -2.415736    2.829609    0.357978
 C   -6.232851   -0.615561    2.587942
 C   -5.919099    0.339561    1.627824
 S   -5.390564   -1.929395   -1.723044
 C    4.814475   -0.936890    1.919926
 C    5.512336   -0.807159   -0.392109
 C    4.205710   -1.088201   -0.776984
 N    7.098433   -0.295283    1.397035
 C    8.113911    0.023696    0.387194
 C    7.957812   -0.852884   -0.845224
 O    6.568846    0.818684   -1.887828
 O    8.035115    2.351188    1.115017
 H   -3.055492   -0.133546    0.734311
 H   -2.924817    0.002606   -1.008403
 H   -5.013249    0.601702   -1.630144
 H   -4.658931    4.038617   -1.081261
 H   -4.671581    3.960649    0.684153
 H   -6.917152    3.067416    0.739679
 H   -7.065465    4.048675   -0.719630
 H   -6.639203    2.144162   -2.157566
 H   -7.576520    1.370994   -0.876034
 H   -6.080687   -3.369245    0.621320
 H   -6.544054   -2.716565    2.958856
 H   -3.608449   -3.299539   -2.473597
 H   -3.095634   -2.385386   -1.028562
 H   -4.132728   -3.834611   -0.867820
 H    2.738636   -1.367671    2.256792
 H    6.388551   -1.126492   -2.325701
 H    8.877503    1.767711   -0.620363
 H    1.734015   -1.763688   -1.356437
 H    1.370142   -2.453881    0.218694
 H    6.797320    2.743943   -1.327836
 H    5.859740    1.773701   -0.181748
 H   -0.799585    1.392804    0.369979
 H    1.283661    0.469841   -0.074782
 H   -6.426770   -0.309075    3.611991
 H   -5.863245    1.381556    1.928394
 H    5.058893   -0.872149    2.977875
 H    3.974423   -1.133015   -1.840047
 H    7.454589   -0.884630    2.139717
 H    9.088648   -0.132906    0.861611
 H    8.026676   -1.913045   -0.582044
 H    8.734053   -0.631068   -1.584354
 H    7.439480    1.949055    1.767255
