32 
6r8p_ligand_ani.xyz
 C    4.316202   -4.433294    6.862485
 N    4.336654   -5.389499    7.829655
 C    5.329960   -5.616618    8.797488
 C    6.118374   -6.897245   10.661262
 C    0.619494   -7.594917    7.247503
 C    0.223817   -6.722035    6.083961
 C   -0.966832   -6.924137    5.396193
 C   -1.343876   -6.123111    4.318067
 C   -0.511612   -5.092405    3.914206
 C    0.691287   -4.860590    4.581559
 C    1.053342   -5.668454    5.655284
 C    3.081457   -4.462827    5.970135
 C    5.145062   -6.663538    9.701858
 C    7.241406   -6.076554   10.682555
 C    6.493226   -4.847731    8.900391
 N    7.426971   -5.074682    9.823503
 O    2.214279   -5.506625    6.360926
 O    5.176813   -3.592224    6.667696
 H    3.539728   -6.008303    7.850474
 H    6.007884   -7.703080   11.381140
 H    1.567599   -8.111383    7.059409
 H    0.741552   -7.010290    8.166376
 H   -0.143551   -8.356155    7.435299
 H   -1.619432   -7.734793    5.715342
 H   -2.282470   -6.309703    3.803041
 H   -0.786761   -4.456181    3.076070
 H    1.331801   -4.048280    4.251809
 H    3.424955   -4.590961    4.936062
 H    2.593572   -3.483356    6.049729
 H    4.252252   -7.283751    9.652814
 H    8.027878   -6.226817   11.419341
 H    6.662971   -4.027461    8.210367
