38 
6r8r_ligand_xtb.xyz
 C   -4.699562    0.417210   -0.499165
 C   -3.582378    1.375706    1.862699
 C   -3.035376    0.261685    1.245619
 C   -3.588160   -0.221843    0.069532
 C   -1.969064   -1.952500   -0.182327
 C    2.685318   -1.932609    0.764211
 C    3.986460   -1.528884    0.810674
 C    5.687500    0.208174    0.296889
 C    5.100040    2.150209   -0.724654
 C    3.777784    1.805267   -0.800813
 C    3.364667    0.556947   -0.287626
 C    2.026418    0.120749   -0.325280
 N    0.382304   -1.606304    0.189104
 C   -5.272791   -0.113911   -1.775363
 O   -3.147561   -1.333742   -0.604011
 C    4.361327   -0.275090    0.285648
 C   -5.228138    1.525630    0.136627
 C   -4.679496    2.008490    1.314278
 C   -0.734967   -1.053552   -0.369172
 C    1.689974   -1.106976    0.190404
 N    6.045566    1.365278   -0.184386
 O   -0.776968   -0.001160   -0.953421
 H   -3.139211    1.744262    2.775982
 H   -2.169901   -0.206217    1.690331
 H   -1.860032   -2.830462   -0.828862
 H   -2.039302   -2.291411    0.862762
 H    2.398047   -2.894729    1.166728
 H    4.744463   -2.162034    1.247945
 H    6.477872   -0.397183    0.724709
 H    5.460113    3.096692   -1.105363
 H    3.050216    2.467432   -1.244389
 H    1.275216    0.756338   -0.763048
 H    0.280025   -2.513139    0.624676
 H   -4.498086   -0.152907   -2.539087
 H   -5.638311   -1.129623   -1.630242
 H   -6.089860    0.512059   -2.123714
 H   -6.082574    2.022666   -0.299940
 H   -5.104859    2.876442    1.794855
