58 
6r8w_ligand_ani.xyz
 C    2.651434   -0.435644    1.209747
 C    3.463175    1.798655    0.394597
 C    2.391618    2.882224    0.587381
 C    0.423706    3.915642   -0.424213
 C   -1.975302    1.068037    0.428190
 C   -3.087857    1.371405   -0.376923
 N   -4.253701    0.613678   -0.274682
 C   -3.426857   -0.437867    1.737255
 C   -1.998876   -0.197360    1.260471
 C   -3.738279   -1.853621   -0.298582
 C   -3.017680    2.462309   -1.251636
 C    1.756846   -1.542159    0.671265
 C    2.463988   -2.910536    0.587378
 C    3.333712   -2.756390   -0.672947
 C    2.162135   -2.356513   -1.586214
 C    1.221390   -3.560797   -1.402553
 C    1.405216   -3.924707    0.104143
 O    3.122814   -0.345767    2.319822
 N    2.862118    0.485534    0.187785
 O    2.187927    3.407835    1.669604
 N    1.668576    3.178408   -0.529390
 C   -0.797593    3.015530   -0.439809
 C   -0.870005    1.910362    0.406019
 C   -4.272633   -0.631261    0.484508
 O   -1.530044   -1.361109    0.543760
 C   -2.272011   -1.646879   -0.636724
 O   -3.882711   -3.036144    0.469956
 C   -1.888110    3.267745   -1.279013
 C    2.278642    0.122964   -1.008799
 O    2.371764    0.776651   -2.032467
 C    1.528024   -1.175976   -0.816547
 H    4.082553    2.025688   -0.478361
 H    4.073374    1.742090    1.296009
 H    0.370385    4.637296   -1.247324
 H    0.480420    4.475948    0.515410
 H   -4.822457    0.620387   -1.110665
 H   -3.474736   -1.314827    2.391510
 H   -3.785388    0.426151    2.303280
 H   -1.309724   -0.098544    2.104467
 H   -4.327953   -1.991917   -1.210864
 H   -3.863122    2.682745   -1.901477
 H    0.832859   -1.573855    1.255869
 H    2.983901   -3.190961    1.506429
 H    4.113043   -1.990320   -0.588105
 H    3.801218   -3.699957   -0.979081
 H    2.412619   -2.113847   -2.622002
 H    0.182165   -3.312237   -1.657621
 H    1.526553   -4.392260   -2.046455
 H    0.471050   -3.837655    0.674018
 H    1.768914   -4.951413    0.216532
 H    1.824217    2.618258   -1.359870
 H   -0.044607    1.698267    1.083911
 H   -5.312657   -0.839394    0.759702
 H   -2.136878   -0.853815   -1.385499
 H   -1.867657   -2.579315   -1.048316
 H   -3.100823   -3.067137    1.041440
 H   -1.856367    4.114980   -1.961381
 H    0.474052   -1.020389   -1.064885
