34 
6r9u_ligand_ani.xyz
 C   -7.005632    7.113155  -22.718723
 C   -8.180409    7.610830  -23.554865
 C   -9.643767    5.702877  -24.233271
 C   -8.843776    4.452430  -23.898224
 C   -7.904096    3.998147  -24.841115
 C   -7.084063    2.944314  -24.513247
 C   -7.163403    2.339816  -23.265760
 C   -8.071635    2.740115  -22.320755
 C  -11.205650    4.698645  -21.963273
 C  -11.293624    6.227230  -21.808826
 C  -10.096962    7.094398  -22.196456
 N   -9.404461    6.835943  -23.347982
 O   -6.076617    2.366333  -25.240789
 C   -5.680578    1.224520  -24.486183
 O   -6.209211    1.362149  -23.169393
 C   -8.960633    3.789497  -22.658036
 N   -9.901828    4.139788  -21.700824
 O   -9.806022    8.049477  -21.486596
 H   -6.107740    7.698555  -22.947236
 H   -7.227835    7.224964  -21.652803
 H   -6.797540    6.057427  -22.924860
 H   -7.941412    7.552485  -24.622452
 H   -8.408225    8.653354  -23.313184
 H   -9.356225    6.022364  -25.240186
 H  -10.715049    5.510307  -24.284666
 H   -7.819121    4.487000  -25.808208
 H   -8.127446    2.256421  -21.348147
 H  -11.903367    4.259219  -21.241539
 H  -11.568722    4.382175  -22.947952
 H  -11.450026    6.477416  -20.757200
 H  -12.175656    6.594941  -22.351270
 H   -6.090434    0.316874  -24.952645
 H   -4.589864    1.182272  -24.436912
 H   -9.784972    3.661564  -20.823424
