35 
6r9x_ligand_ani.xyz
 C    4.759464   20.355269   19.162296
 C    6.969776   21.441064   19.115943
 C    8.296901   20.674538   19.024229
 C    8.829722   20.959023   17.603485
 C    8.166195   22.290403   17.159900
 C    7.272848   22.730456   18.339553
 C    1.577570   18.512189   18.229019
 C    1.707050   15.211608   20.098979
 C    0.342508   14.993595   20.251843
 C   -0.532020   15.944251   19.738948
 O    4.491894   20.609933   20.327893
 N    5.883051   20.696005   18.503903
 C    3.793837   19.568281   18.246737
 O    4.079896   19.321810   17.083295
 N    2.668089   19.206011   18.884172
 C    1.174523   17.254465   18.967789
 C    2.133215   16.362211   19.450389
 N   -0.138405   17.050423   19.107150
 H    6.659619   21.629560   20.145928
 H    8.161024   19.609132   19.235227
 H    8.989428   21.073545   19.776792
 H    8.564448   20.149219   16.915664
 H    9.922772   21.021546   17.598258
 H    8.906917   23.059721   16.918711
 H    7.571740   22.140241   16.252539
 H    7.821492   23.418683   18.995664
 H    6.354085   23.236854   18.027277
 H    0.695055   19.155752   18.148975
 H    1.928619   18.282085   17.217040
 H    2.429514   14.495506   20.482952
 H   -0.038230   14.109613   20.754929
 H   -1.609148   15.812791   19.836937
 H    5.936311   20.399730   17.536989
 H    2.574245   19.513452   19.843213
 H    3.188997   16.575037   19.309382
