34 
6ra1_ligand_xtb.xyz
 C    0.983542    2.162719   -1.367779
 C    1.960091    2.187846   -0.195621
 C    1.176514    0.496537    1.431413
 C   -0.127177    0.011872    0.832157
 C   -1.302259    0.670254    1.206018
 C   -2.470704    0.346783    0.566927
 C   -2.491450   -0.599232   -0.455787
 C   -1.359507   -1.273555   -0.827286
 C    1.929603   -2.176412    0.416391
 C    3.213423   -1.325719    0.507678
 C    3.070102    0.063305   -0.106070
 N    2.135600    0.884993    0.421382
 O   -3.738004    0.852176    0.747527
 C   -4.548661    0.190730   -0.197149
 O   -3.764614   -0.714030   -0.946384
 C   -0.156416   -0.979342   -0.160683
 N    0.985395   -1.653696   -0.552918
 O    3.811646    0.420137   -1.001770
 H    1.322118    1.439957   -2.105143
 H   -0.015400    1.887409   -1.039420
 H    0.944624    3.144313   -1.832772
 H    1.618668    2.888836    0.570386
 H    2.942971    2.501865   -0.556034
 H    1.625998   -0.246426    2.090532
 H    0.964486    1.379834    2.042164
 H   -1.289048    1.429070    1.971329
 H   -1.386710   -2.009918   -1.613909
 H    1.439328   -2.251109    1.392567
 H    2.204344   -3.191870    0.119823
 H    4.017408   -1.803703   -0.052601
 H    3.541739   -1.230419    1.544312
 H   -5.003673    0.930623   -0.875622
 H   -5.348439   -0.360986    0.323292
 H    0.839796   -2.247532   -1.354383
