33 
6rih_ligand_dft.xyz
 C    2.346685    0.518275   -0.059280
 C   -1.332760    0.325641   -0.031376
 C    4.243861   -0.956127   -0.468841
 C    4.744525   -2.299733   -0.016412
 C    0.763132    3.141686   -0.117085
 C   -2.947837   -1.578136   -0.105336
 C   -4.245866   -2.075442   -0.063870
 C    0.865124    0.606441   -0.063823
 N    0.211119    1.797751   -0.087638
 C   -0.111157   -0.373487   -0.025791
 N   -1.112805    1.643101   -0.072297
 N    2.836292   -0.714998   -0.384247
 C    5.024155   -1.071949    0.806700
 O    3.062598    1.465783    0.228311
 C   -2.705755   -0.206258    0.007361
 C   -3.794311    0.659622    0.158735
 C   -5.090698    0.161958    0.197018
 C   -5.322867   -1.207284    0.087555
 H    4.743660   -0.485783   -1.313159
 H    5.556283   -2.751321   -0.577356
 H    4.010695   -3.003266    0.365960
 H    1.283079    3.358634    0.816600
 H    1.471972    3.241640   -0.939829
 H   -0.080557    3.816759   -0.254941
 H   -2.117897   -2.267294   -0.233835
 H   -4.415263   -3.144530   -0.153260
 H    0.042519   -1.440449    0.046603
 H    2.215633   -1.370143   -0.835671
 H    4.470777   -0.944714    1.730598
 H    6.029642   -0.665502    0.816203
 H   -3.609076    1.725038    0.246508
 H   -5.925052    0.847145    0.315632
 H   -6.336835   -1.594692    0.119412
