33 
6rih_ligand_ani.xyz
 C   15.351418  -11.289566   71.567505
 C   12.712322  -12.476137   73.848296
 C   17.327551   -9.860030   71.671788
 C   17.551499   -8.376148   71.729822
 C   13.608955  -13.604234   70.646586
 C   12.054269  -11.906996   76.191885
 C   11.208303  -12.049313   77.284353
 C   14.257530  -11.877985   72.374302
 N   13.503855  -12.907382   71.917447
 C   13.764908  -11.567882   73.636397
 N   12.569759  -13.277932   72.789299
 N   16.112016  -10.374981   72.235152
 C   17.237221   -9.035084   70.420888
 O   15.562830  -11.575803   70.398347
 C   11.822813  -12.624775   75.015581
 C   10.730317  -13.495436   74.954752
 C    9.884542  -13.635446   76.048114
 C   10.119125  -12.913530   77.215319
 H   18.200501  -10.503900   71.765575
 H   18.561821   -8.020049   71.910748
 H   16.770326   -7.769036   72.178983
 H   12.835711  -14.372483   70.660991
 H   13.459538  -12.911571   69.817166
 H   14.598500  -14.052139   70.540683
 H   12.906004  -11.234799   76.259759
 H   11.400551  -11.483302   78.191827
 H   14.076265  -10.772300   74.301645
 H   15.996874  -10.285585   73.233622
 H   18.021224   -9.144925   69.676981
 H   16.238508   -8.898016   70.020215
 H   10.555043  -14.059288   74.042712
 H    9.037340  -14.314020   75.987808
 H    9.455562  -13.025927   78.068451
