45 
6rj3_ligand_ani.xyz
 C   -3.420304    0.001496   -0.067341
 C   -0.502819   -2.251145    0.032042
 C   -4.272437    1.204627   -0.016117
 C   -3.210072   -3.452003   -0.662318
 C   -6.472427    2.206862   -0.022505
 C   -5.905045    3.473759    0.085353
 C    2.967599   -0.956443    0.105792
 C    4.011022    1.033571    0.998766
 C    4.869784    1.087427   -0.101766
 C    4.780522    0.113330   -1.099197
 C    5.854106    2.197135   -0.159875
 C   -4.520311    3.607000    0.137927
 C   -5.663677    1.078347   -0.075977
 C   -3.710219    2.479752    0.087000
 C    3.067333    0.022564    1.099415
 C    3.836234   -0.898589   -0.987898
 C   -2.040289   -0.126081    0.170147
 C   -1.764559   -1.473638   -0.033773
 C    2.234052   -2.989077    1.417692
 C    1.951020   -2.072744    0.222366
 N   -3.950473   -1.184015   -0.379533
 N   -2.945260   -2.055233   -0.357690
 N    0.602408   -1.505534    0.291033
 O    6.630320    2.167654   -1.263514
 O    5.973208    3.058767    0.681935
 O   -0.448933   -3.466220   -0.132356
 H   -4.282470   -3.520366   -0.845772
 H   -2.643575   -3.764874   -1.541085
 H   -2.913131   -4.086376    0.174112
 H   -7.552904    2.095497   -0.067331
 H   -6.540846    4.354043    0.126217
 H    4.096664    1.800822    1.761336
 H    5.448834    0.155484   -1.953630
 H   -4.068521    4.591970    0.218975
 H   -6.099945    0.087416   -0.166804
 H   -2.629661    2.595928    0.119586
 H    2.406009   -0.003526    1.964654
 H    3.768110   -1.655334   -1.767681
 H   -1.370015    0.662609    0.488126
 H    2.183456   -2.429119    2.357953
 H    1.493888   -3.791730    1.445320
 H    3.233521   -3.425341    1.323107
 H    2.008807   -2.688162   -0.682718
 H    0.520464   -0.498389    0.284915
 H    7.220767    2.934412   -1.182870
