58 
6rot_ligand_xtb.xyz
 C   -1.079234    2.544090   -1.154332
 C   -2.159743    2.720681    0.987328
 C   -0.915582    2.686697    1.588762
 C   -3.158424   -0.824421   -0.752462
 C    3.784451   -0.577668   -1.046378
 C    3.657521   -1.301686   -2.389429
 C    3.403430   -2.749787   -1.982246
 C    1.558781    2.571672    1.597912
 C    0.171506    2.507196   -0.548990
 C    0.252824    2.586812    0.841942
 C   -3.054677   -1.378007    0.518804
 C   -2.015085   -0.870864    1.458733
 C    2.834804   -0.980982    1.132419
 C    2.501992   -2.602540   -0.758747
 N    2.981041   -1.383037   -0.130515
 C   -4.087071   -1.313144   -1.652943
 C   -4.917722   -2.362366   -1.295258
 C   -4.810971   -2.925268   -0.035301
 C   -3.880804   -2.438663    0.866868
 O   -0.077360   -0.614944   -0.356024
 S   -0.413117   -1.408761    0.806128
 O   -0.391544   -2.827647    0.611021
 N    0.593577   -1.070284    2.089397
 C    1.883005   -1.743509    2.051820
 O    3.388808    0.036183    1.543930
 C    3.325964    0.883687   -1.162964
 O    4.125245    1.790301   -1.267995
 N    1.995252    1.045626   -1.239999
 C    1.388221    2.351111   -1.421503
 O    1.512718    1.595084    2.630314
 C   -2.229987    2.657325   -0.394500
Cl   -3.772773    2.710213   -1.176078
 H   -1.157035    2.484207   -2.229087
 H   -3.060031    2.805300    1.575884
 H   -0.835165    2.735578    2.664367
 H   -2.496846   -0.019568   -1.031102
 H    4.822984   -0.551750   -0.694002
 H    2.798563   -0.911904   -2.937530
 H    4.548479   -1.178466   -3.000530
 H    4.341152   -3.230699   -1.700509
 H    2.932852   -3.332571   -2.770393
 H    1.706235    3.558695    2.062655
 H    2.402182    2.376466    0.937486
 H   -1.966207    0.214241    1.499007
 H   -2.089489   -1.304066    2.450636
 H    2.586157   -3.453501   -0.081838
 H    1.451612   -2.492697   -1.045974
 H   -4.162760   -0.874119   -2.636350
 H   -5.643241   -2.743143   -1.998502
 H   -5.451309   -3.747948    0.245964
 H   -3.796416   -2.882505    1.847819
 H    0.699992   -0.065961    2.263103
 H    2.297464   -1.738180    3.063963
 H    1.690724   -2.765206    1.729777
 H    1.349556    0.284292   -1.056113
 H    1.095596    2.465838   -2.472245
 H    2.152026    3.103074   -1.199271
 H    2.358723    1.110987    2.588684
