71 
6rz6_ligand_ani.xyz
 C    7.966167   -0.115929    0.491671
 C   -0.197342   -2.334589   -0.063953
 C    8.581669    0.544367   -0.750006
 C    8.567283    2.078148   -0.751119
 C    4.048320   -2.771824   -1.505339
 C    7.188554    2.694672   -0.732878
 C    5.739203   -0.947783   -0.137273
 C    6.248224   -1.819936   -1.109269
 C    5.415784   -2.710898   -1.774827
 C    3.524069   -1.913709   -0.554106
 C    1.160135   -2.704364   -0.575064
 N    6.513354   -0.023092    0.574656
 N    2.162054   -1.843663   -0.207861
 C    5.965217    0.292308    1.879932
 C    4.519078    0.757260    1.727135
 C   -1.122609   -3.366113    0.115743
 C   -2.401282   -3.103073    0.567031
 C   -2.788739   -1.781377    0.817871
 C   -4.579193   -0.301390    1.359277
 C   -6.016869   -0.388936    1.841856
 C    4.467901    2.115016    1.025844
 C   -6.925013   -1.256822    0.970761
 C   -7.074643   -0.784322   -0.483562
 C   -7.686673    0.592425   -0.608166
 C   -6.882854    1.713065   -0.833395
 C   -7.446252    2.975707   -0.908602
 C   -8.806823    3.183243   -0.768816
 C   -9.620274    2.080128   -0.546591
 C   -9.062625    0.809614   -0.468231
 C   -1.882396   -0.738037    0.622379
 C   -0.591463   -1.023963    0.190075
 C    4.365148   -1.009550    0.117228
 F   -6.645189    4.035476   -1.126250
 O    4.021448    2.316377   -0.082665
 O    5.000072    3.067781    1.793773
 O    6.884811    3.659704   -0.059267
 O    6.340648    2.070271   -1.553621
 O    1.330260   -3.713593   -1.242629
 O   -4.065438   -1.618923    1.250725
 O    3.738928   -0.195794    1.034400
Cl  -10.141754   -0.536935   -0.196430
 H    8.290154   -1.166486    0.555036
 H    8.373439    0.379780    1.380921
 H    8.079069    0.190437   -1.654874
 H    9.625942    0.219815   -0.811559
 H    9.066027    2.439426   -1.660258
 H    9.119084    2.491975    0.098085
 H    3.396618   -3.471074   -2.011771
 H    7.306381   -1.814576   -1.345482
 H    5.840387   -3.380205   -2.517893
 H    1.960332   -1.139650    0.490194
 H    6.549176    1.104264    2.321535
 H    6.006207   -0.574516    2.559319
 H    4.069936    0.878663    2.715889
 H   -0.810841   -4.381556   -0.112705
 H   -3.123151   -3.898840    0.723029
 H   -3.979955    0.276530    2.077087
 H   -4.516472    0.207455    0.386446
 H   -6.414824    0.631338    1.921592
 H   -6.012136   -0.798235    2.859585
 H   -6.533970   -2.280349    0.965438
 H   -7.915675   -1.298555    1.435438
 H   -7.693427   -1.506180   -1.027363
 H   -6.095405   -0.787813   -0.978488
 H   -5.807829    1.616298   -0.955982
 H   -9.212365    4.186789   -0.836093
 H  -10.693503    2.200844   -0.434736
 H   -2.163477    0.294323    0.805463
 H    0.095228   -0.195359    0.020559
 H    5.216870    3.821046    1.210640
 H    5.430827    2.363696   -1.330419
