37 
6s0e_ligand_ani.xyz
 C   -3.870905    0.272732    0.154787
 C   -2.485777   -0.220005   -0.082565
 C   -2.221837   -1.525148   -0.083075
 C   -0.829423   -2.074487   -0.200848
 C    0.190948   -0.904772   -0.085272
 C   -0.356650    0.294656   -0.866928
 C    0.493476    1.548192   -1.057606
 C    0.907401    2.310519    0.202938
 C    1.878731    1.571779    1.125596
 C    2.350791   -2.113413    0.008293
 C    3.739405   -2.220022   -0.581331
 N    1.493062   -1.273702   -0.621707
 O   -3.969202    1.608095    0.166490
 O   -4.815290   -0.467015    0.321222
 O   -0.653070   -3.049478    0.791700
 O   -1.561138    0.751848   -0.249923
 O    1.649978    1.240133   -1.821793
 O    1.578828    3.456521   -0.306652
 O    2.453726    2.564153    1.973058
 O    2.041868   -2.765227    1.006818
 H   -3.036178   -2.226137    0.041234
 H   -0.710727   -2.525514   -1.203179
 H    0.256862   -0.674311    0.982999
 H   -0.606473   -0.067161   -1.876959
 H   -0.133084    2.242873   -1.632784
 H    0.009765    2.606608    0.764943
 H    1.366025    0.819209    1.735394
 H    2.649207    1.082531    0.515063
 H    3.963294   -3.277555   -0.744900
 H    3.866001   -1.672806   -1.519652
 H    4.460239   -1.846981    0.152785
 H    1.854884   -0.649889   -1.336721
 H   -4.909515    1.795899    0.327488
 H    0.304778   -3.120435    0.982587
 H    2.185925    2.049403   -1.782427
 H    2.126473    3.772778    0.430296
 H    3.318534    2.254963    2.264492
