62 
6s4n_ligand_xtb.xyz
 C    5.894465   -3.397966    0.820596
 C    4.818500   -3.330868   -0.261474
 C    5.422934   -3.382076   -1.657516
 C    2.434583   -0.600029    0.694366
 C    3.292519    0.311238    0.189907
 C    3.353410    1.755533    0.223136
 C    3.009145    2.470913    1.373626
 C    3.095425    3.850813    1.387588
 C    3.537764    4.534424    0.267243
 C    3.914576    3.829346   -0.865631
 C    3.829231    2.450768   -0.890137
 O    4.397086   -0.515378   -2.084804
 N    1.244401   -0.469555    1.325506
 C    0.307114    0.607473    1.088150
 C   -0.261500    0.553734   -0.336214
 C   -1.306052    1.659344   -0.525369
 C   -0.832257    0.526975    2.101039
 N   -3.765507   -0.107988    1.269980
 C   -4.791400   -0.931305    1.185866
 C   -8.050854   -1.292360   -0.066918
 C   -5.251365   -0.251873   -1.028648
 C   -4.200371    0.635304   -0.934570
 N    4.059171   -2.098200   -0.103755
 C    2.889906   -2.024868    0.552768
 O    2.241720   -2.955160    0.991838
 S    4.581978   -0.562828   -0.665350
 O    5.898117   -0.301324   -0.172817
 N   -2.369091    1.527133    0.449705
 C   -1.859561    1.621547    1.803524
 C   -3.420708    0.668677    0.242529
 C   -5.560396   -1.084793    0.045446
 C   -6.716974   -2.035801   -0.022555
 O   -8.169629   -0.114259   -0.209133
 O   -9.128825   -2.089353    0.054400
Cl   -3.969097    1.732793   -2.257301
 H    6.546240   -2.531511    0.740218
 H    5.436175   -3.403923    1.806926
 H    6.482960   -4.303695    0.701570
 H    4.098932   -4.148722   -0.124420
 H    4.650595   -3.265448   -2.413379
 H    6.141314   -2.575112   -1.777795
 H    5.925902   -4.334377   -1.805674
 H    2.716413    1.934673    2.264236
 H    2.826399    4.394253    2.281561
 H    3.603504    5.611889    0.281993
 H    4.277277    4.358527   -1.733916
 H    4.120188    1.893488   -1.767096
 H    0.826973   -1.377488    1.517767
 H    0.838452    1.557641    1.209083
 H   -0.731455   -0.419008   -0.502303
 H    0.544220    0.677916   -1.061539
 H   -1.707839    1.615575   -1.534482
 H   -0.836578    2.637325   -0.380569
 H   -0.445534    0.643750    3.113330
 H   -1.330120   -0.441047    2.027775
 H   -4.988949   -1.505209    2.082560
 H   -5.852602   -0.273228   -1.924502
 H   -1.395003    2.606842    1.906839
 H   -2.699460    1.542949    2.492247
 H   -6.654207   -2.644215   -0.931116
 H   -6.707134   -2.702142    0.844152
 H   -8.903026   -3.022789    0.159823
