63 
6s4t_ligand_dft.xyz
 C    1.185186    5.340108    0.159170
 C    0.068864    4.621451   -0.255818
 C    0.227485    3.434627   -0.964978
 C    1.498522    2.947414   -1.263331
 C    1.673287    1.631338   -1.996938
 C   -9.312985   -0.874996   -0.119148
 C   -8.355283   -1.995191   -0.527519
 C   -4.974941   -0.968842    0.878697
 C   -6.093080   -1.627253   -1.572943
 C   -4.743714   -1.296905   -1.488853
 C   -4.171790   -0.969611   -0.262912
 C   -2.697326   -0.672280   -0.173989
 C   -0.084969    0.195585    0.429721
 C    0.202098    2.091164    2.447348
 C    3.307101   -0.695937    0.581388
 C    2.371389    0.207989   -0.002098
 C    2.592507    0.654980   -1.290658
 C    3.754875    0.190594   -1.955445
 C    4.433081   -1.086017   -0.191676
 F    7.366761   -3.259601    0.268955
 F    7.358822   -1.366438   -0.766757
 F    6.242183   -3.044099   -1.559987
 C    6.587398   -2.409084   -0.432140
 C    2.613986    3.680111   -0.851716
 C    2.460040    4.867584   -0.145325
 O   -8.996561    0.148177    0.418637
 O  -10.615547   -1.131926   -0.381252
 C   -6.321844   -1.290737    0.791247
 C   -6.896898   -1.628886   -0.435929
 O   -2.483687    0.299626    0.830130
 C   -1.208936    0.682433    1.095913
 C   -1.061657    1.637891    2.106254
 C    1.331841    1.609458    1.788990
 C    1.184873    0.671709    0.771351
 N    4.641006   -0.632016   -1.453919
 C    5.382639   -1.988585    0.374879
 C    5.200652   -2.472939    1.643879
 C    4.074082   -2.090301    2.405937
 C    3.148305   -1.224671    1.890259
 H    1.064342    6.263842    0.717265
 H   -0.929478    4.976520   -0.018060
 H   -0.648611    2.863899   -1.262003
 H    2.075944    1.821520   -2.999653
 H    0.688747    1.173842   -2.145885
 H   -8.599876   -2.315458   -1.548282
 H   -8.576434   -2.852762    0.124296
 H   -4.541448   -0.698012    1.835581
 H   -6.522908   -1.876639   -2.540018
 H   -4.136300   -1.291031   -2.390735
 H   -2.323710   -0.309271   -1.142277
 H   -2.140351   -1.588246    0.075238
 H   -0.171043   -0.541173   -0.361113
 H    0.310085    2.838962    3.226678
 H    3.951066    0.540666   -2.969454
 H    3.611709    3.306848   -1.070852
 H    3.337367    5.424193    0.171525
 H  -10.711171   -1.989775   -0.815602
 H   -6.938517   -1.266151    1.684373
 H   -1.951991    2.008027    2.603476
 H    2.318354    1.989059    2.033733
 H    5.925330   -3.158553    2.066863
 H    3.947733   -2.491937    3.406150
 H    2.281851   -0.933252    2.474463
