63 
6s4t_ligand_ani.xyz
 C   21.069872   10.081243   12.717382
 C   20.106681    9.256997   13.290398
 C   19.907817    9.271011   14.668025
 C   20.651429   10.120408   15.487275
 C   20.435545   10.170526   16.990784
 C   12.318938    2.883680   16.846255
 C   11.716542    4.182882   17.351877
 C   13.645952    7.168921   16.006598
 C   13.557979    5.610852   18.307035
 C   14.469247    6.655260   18.207124
 C   14.518237    7.443592   17.057588
 C   15.503869    8.582598   16.984450
 C   17.236419   10.693511   16.387634
 C   17.262637   11.656953   13.775499
 C   18.839928   13.627385   17.553001
 C   19.037448   12.298898   17.049225
 C   20.117968   11.564087   17.507629
 C   20.990511   12.178401   18.430004
 C   19.803407   14.131218   18.466860
 F   20.379181   17.288096   20.265506
 F   21.917213   16.051851   19.381235
 F   20.767499   15.314136   21.057427
 C   20.681823   16.017919   19.913669
 C   21.613017   10.942666   14.900792
 C   21.826545   10.921559   13.526490
 O   13.428572    2.732941   16.400419
 O   11.433388    1.871852   16.955533
 C   12.735732    6.122440   16.111595
 C   12.673158    5.340125   17.263772
 O   15.546664    9.098558   15.668239
 C   16.401278   10.128694   15.424121
 C   16.419361   10.608028   14.110927
 C   18.095224   12.225599   14.732393
 C   18.091835   11.742087   16.042644
 N   20.865395   13.394956   18.893952
 C   19.656304   15.455934   18.963053
 C   18.579083   16.220419   18.585099
 C   17.609539   15.711296   17.704014
 C   17.729784   14.442191   17.199752
 H   21.230584   10.066702   11.641883
 H   19.509257    8.600102   12.660553
 H   19.150846    8.624760   15.111045
 H   19.629192    9.478659   17.264242
 H   21.332866    9.815975   17.512278
 H   10.808781    4.369668   16.765367
 H   11.390427    4.009769   18.384531
 H   13.685699    7.775439   15.107269
 H   13.531189    4.992478   19.202432
 H   15.150528    6.860394   19.031025
 H   16.503388    8.230736   17.279382
 H   15.216543    9.379651   17.686290
 H   17.242660   10.323542   17.411954
 H   17.270203   12.034730   12.755238
 H   21.850613   11.611176   18.794658
 H   22.199220   11.611902   15.530009
 H   22.584076   11.565970   13.085244
 H   11.887693    1.083856   16.614755
 H   12.062311    5.905857   15.283583
 H   15.760899   10.153193   13.375967
 H   18.754702   13.051547   14.468472
 H   18.479792   17.228155   18.976886
 H   16.762579   16.332579   17.425890
 H   16.976928   14.040393   16.524767
