56 
6s56_ligand_ani.xyz
 C   -2.401541    0.564201    0.074729
 C    3.251227    2.433530    1.316148
 C   -4.541177   -0.251042    2.348775
 N   -4.662272   -0.603041    0.937144
 C   -5.739967   -1.551245    0.655461
 S   -3.197683   -1.022291    0.225743
 O   -3.489452   -1.539077   -1.104165
 O   -2.424874   -1.821353    1.169476
 C   -1.155023    0.715969    0.668698
 C   -0.423263    1.894922    0.510251
 N    0.865042    1.928888    1.075931
 C    1.854953    2.838963    0.813198
 O    1.679936    3.895575    0.232440
 N    3.752938    1.226760    0.674362
 C    4.341147    1.252791   -0.599162
 O    4.751098    2.244408   -1.158024
 N    4.330699   -0.040073   -1.057624
 C    3.560388   -0.950844   -0.214971
 C    4.423064   -2.137962    0.240810
 C    3.598888   -3.131279    1.053906
 C    2.483257   -3.715903    0.189294
 C    1.696417   -2.656988   -0.558884
 C    0.403178   -2.941293   -1.010447
 C   -0.317555   -2.031081   -1.767963
 C    0.257930   -0.805405   -2.102546
 C    1.528487   -0.500578   -1.639032
 C    2.246189   -1.402614   -0.848170
 C    3.260768   -0.022188    0.973166
 O    2.638668   -0.288164    1.984617
 C   -0.979615    2.957039   -0.197369
 C   -2.240136    2.813253   -0.761811
 C   -2.956672    1.626142   -0.642979
Cl   -4.511917    1.541534   -1.402849
 H    3.937492    3.245397    1.084626
 H    3.228348    2.248032    2.393518
 H   -4.152967   -1.081241    2.951240
 H   -5.535477    0.029909    2.708133
 H   -3.887734    0.617549    2.464839
 H   -5.608532   -2.513971    1.170196
 H   -5.786273   -1.721678   -0.420581
 H   -6.677967   -1.091696    0.978869
 H   -0.744181   -0.106094    1.244594
 H    1.117346    1.097410    1.599538
 H    4.403865   -0.180392   -2.054175
 H    4.830185   -2.621674   -0.656286
 H    5.266246   -1.740620    0.812921
 H    4.243286   -3.932148    1.432219
 H    3.165210   -2.614532    1.916189
 H    2.919286   -4.409184   -0.545707
 H    1.796200   -4.314539    0.799335
 H   -0.045950   -3.900569   -0.758192
 H   -1.334937   -2.263626   -2.075673
 H   -0.292747   -0.082527   -2.701131
 H    1.971289    0.460464   -1.889661
 H   -0.424651    3.878088   -0.310586
 H   -2.675345    3.639037   -1.317733
