56 
6s56_ligand_xtb.xyz
 C   -2.052377    0.650051    0.128754
 C    3.571470    1.935950    1.407640
 C   -4.036113   -0.089371    2.486394
 N   -4.333672   -0.347126    1.097385
 C   -5.533550   -1.121871    0.868609
 S   -2.978382   -0.882118    0.256329
 O   -3.400684   -1.315314   -1.040386
 O   -2.202060   -1.803415    1.039390
 C   -0.836931    0.744001    0.770038
 C   -0.066648    1.900939    0.649689
 N    1.174627    1.910187    1.280886
 C    2.282399    2.612963    0.903423
 O    2.279079    3.606881    0.222009
 N    3.691792    0.647645    0.755634
 C    4.526214    0.439890   -0.368004
 O    5.333616    1.224608   -0.778856
 N    4.247100   -0.808407   -0.808780
 C    3.101204   -1.396098   -0.150414
 C    3.328439   -2.854353    0.238111
 C    2.059922   -3.424010    0.863241
 C    0.930624   -3.446017   -0.160255
 C    0.798485   -2.155104   -0.914626
 C   -0.368668   -1.911812   -1.632173
 C   -0.544008   -0.743371   -2.346299
 C    0.460136    0.210406   -2.360562
 C    1.629480   -0.020530   -1.662691
 C    1.812221   -1.201537   -0.948385
 C    2.921680   -0.441389    1.019607
 O    2.176392   -0.555783    1.970762
 C   -0.544681    2.960348   -0.120470
 C   -1.772452    2.864712   -0.748816
 C   -2.534682    1.709807   -0.622925
Cl   -4.060494    1.576258   -1.383193
 H    4.436152    2.534413    1.112930
 H    3.543186    1.800903    2.491661
 H   -3.842805   -1.014878    3.039986
 H   -4.876138    0.437363    2.937611
 H   -3.149804    0.540406    2.533674
 H   -5.542367   -2.049805    1.451427
 H   -5.566721   -1.364262   -0.190616
 H   -6.401985   -0.518340    1.133365
 H   -0.489221   -0.107141    1.336206
 H    1.334134    1.093592    1.869512
 H    4.600196   -1.146424   -1.688125
 H    3.589700   -3.416882   -0.661787
 H    4.165853   -2.913724    0.935968
 H    2.250772   -4.434428    1.227305
 H    1.771793   -2.805953    1.713196
 H    1.105433   -4.248955   -0.884612
 H   -0.019957   -3.650616    0.335626
 H   -1.158533   -2.645634   -1.613166
 H   -1.466539   -0.579247   -2.880228
 H    0.336879    1.132925   -2.906640
 H    2.408166    0.729599   -1.684740
 H    0.058038    3.846958   -0.232767
 H   -2.146387    3.684095   -1.341293
