46 
6s7k_ligand_dft.xyz
 O   -0.532205   -0.588194   -1.066171
 C    2.476822    4.614678    0.498768
 C    1.673727    1.210778   -0.505538
 O    3.798621   -2.518673   -1.373992
 C   -0.645705    0.618193   -1.165221
 N   -3.875784   -0.013068   -2.116117
 C   -1.957480    1.279322   -1.587787
 C   -3.155433    0.477258   -1.162444
 N   -4.965412   -0.732596   -1.778232
 C   -5.440620   -1.036651   -0.517034
 C   -4.620480   -0.464940    0.562611
 C   -4.989398   -0.679757    1.893693
 C   -4.224406   -0.141474    2.911662
 N    3.514718   -2.716739    1.101436
 C   -3.085427    0.614728    2.605223
 C   -2.714766    0.830014    1.290313
 C   -3.480720    0.290172    0.243671
 S    4.235689   -1.885895   -0.143271
 O    5.636599   -1.770266    0.225374
 C    2.080047   -2.978234    1.050829
 C    3.544328   -0.241666   -0.111672
 C    2.248417   -0.049243   -0.593543
 C    2.424983    2.281786    0.025391
 O    1.775974    3.475891    0.039173
 C    3.722352    2.076145    0.478044
 C    4.283334    0.801337    0.422393
 N    0.370952    1.509480   -0.931892
 O   -6.447134   -1.709242   -0.365732
 H    2.767027    4.502679    1.550029
 H    3.368159    4.803160   -0.110870
 H    1.785788    5.452019    0.401316
 H   -1.966719    1.335041   -2.680989
 H   -2.024902    2.305605   -1.204683
 H   -5.485751   -1.102422   -2.561907
 H   -5.876959   -1.270556    2.093660
 H   -4.503385   -0.303886    3.947958
 H    3.873132   -2.400373    1.995598
 H   -2.485329    1.034355    3.406895
 H   -1.824498    1.412308    1.073501
 H    1.463997   -2.081018    1.198285
 H    1.842354   -3.416249    0.080112
 H    1.842500   -3.710662    1.825501
 H    1.691223   -0.863242   -1.036000
 H    4.305488    2.896853    0.878441
 H    5.294071    0.624215    0.772540
 H    0.159183    2.496157   -0.968788
