51 
6s9c_ligand_xtb.xyz
 C   -1.115275    1.559368   -1.656802
 C   -1.492678    2.410036   -0.441211
 C   -0.369919    3.408708   -0.123972
 C   -1.763722    1.541725    0.814514
 C   -3.873979    0.239051    0.438982
 C   -4.895843    1.156324    0.607052
 C   -5.433274   -1.553718   -0.074371
 C   -4.129005   -1.108717    0.097804
 N   -2.942592   -1.791019   -0.004362
 C   -0.007869   -2.213379   -0.326301
 C    1.473227   -2.160329   -0.098788
 C    2.169707   -3.356061    0.052652
 C    2.191904   -0.971159   -0.080913
 C    4.390976    0.209061    0.142601
 C    5.991938    2.488879    0.162481
 O   -2.703690    3.104145   -0.677602
 N   -2.501331    0.342185    0.546013
 C   -6.185847    0.693682    0.430343
 C   -6.448873   -0.635882    0.098617
 C   -2.020354   -0.917927    0.250607
 N   -0.661531   -1.157383    0.265512
 O   -0.539627   -3.083661   -0.963921
 C    3.543317   -3.293378    0.228228
 N    4.223620   -2.165193    0.261296
 C    3.574302   -1.012188    0.112296
 C    3.864936    1.440727    0.526641
 C    4.660777    2.571144    0.535400
 C    6.528208    1.266144   -0.208031
 C    5.736234    0.134626   -0.215405
 H   -1.924033    0.877838   -1.911409
 H   -0.927432    2.203440   -2.514604
 H   -0.216391    0.979011   -1.466591
 H   -0.233956    4.092923   -0.958978
 H   -0.627306    3.990942    0.757625
 H    0.571467    2.894708    0.052104
 H   -2.351187    2.153606    1.504889
 H   -0.815794    1.293988    1.300713
 H   -4.694571    2.189390    0.842143
 H   -5.627988   -2.581096   -0.334524
 H    1.638875   -4.293721    0.024152
 H    1.707767   -0.023548   -0.268283
 H    6.610012    3.374327    0.167623
 H   -2.652218    3.553644   -1.527909
 H   -7.012069    1.378867    0.549517
 H   -7.474853   -0.948725   -0.028257
 H   -0.102139   -0.496423    0.784864
 H    4.132227   -4.193447    0.347870
 H    2.836096    1.517994    0.848687
 H    4.242228    3.519941    0.838599
 H    7.567930    1.196793   -0.491363
 H    6.139379   -0.824872   -0.498458
