52 
6s9d_ligand_ani.xyz
 C  -22.030198  -53.964472    1.185796
 C  -20.114774  -52.401792    0.860618
 C  -18.001592  -52.331817    1.023895
 C  -16.649303  -52.584795    1.276871
 C  -15.720552  -51.638180    0.877709
 C  -18.376908  -51.138056    0.381881
 C  -22.332224  -49.941248   -2.233490
 C  -22.785327  -50.288025   -3.653908
 C  -23.116793  -51.765175   -3.870021
 C  -25.260941  -52.057098   -2.781859
 C  -27.294309  -51.101363   -3.669450
 C  -27.357111  -52.361780   -1.636010
 C  -25.978176  -52.580762   -1.683982
 C  -25.660301  -54.945840    1.065569
 C  -24.005678  -53.242331   -0.224262
 O  -21.450772  -54.891647    1.698448
 N  -21.464371  -52.730522    0.894924
 N  -19.120516  -53.107958    1.309061
 C  -16.113115  -50.451189    0.233496
 C  -17.449929  -50.182301   -0.025428
 N  -19.759238  -51.194455    0.293117
 C  -20.634241  -50.250443   -0.378328
 C  -21.118374  -50.732680   -1.748291
 O  -23.930606  -52.341948   -2.856407
 C  -25.923951  -51.314206   -3.760236
 C  -28.018807  -51.626145   -2.608713
 C  -25.352107  -53.366938   -0.575637
 N  -26.173432  -54.177474    0.107071
 C  -24.323810  -54.924397    1.445811
 C  -23.483987  -54.025436    0.800718
 H  -16.346969  -53.502854    1.773209
 H  -14.665252  -51.817661    1.065925
 H  -22.104122  -48.867725   -2.194549
 H  -23.167901  -50.103593   -1.537637
 H  -21.997139  -50.025747   -4.373363
 H  -23.651656  -49.667370   -3.914027
 H  -23.570896  -51.930855   -4.855646
 H  -22.200116  -52.361977   -3.837915
 H  -27.795037  -50.524575   -4.442291
 H  -27.906214  -52.789490   -0.803131
 H  -26.359707  -55.612419    1.565619
 H  -23.373544  -52.569636   -0.783232
 H  -22.109183  -51.990190    0.669778
 H  -15.356241  -49.731708   -0.066042
 H  -17.755752  -49.266289   -0.525769
 H  -20.079537  -49.316336   -0.482396
 H  -21.481922  -50.020574    0.279571
 H  -21.368851  -51.798890   -1.683686
 H  -20.293798  -50.657321   -2.469126
 H  -25.378620  -50.897283   -4.599572
 H  -29.091449  -51.467813   -2.538674
 H  -23.942649  -55.576222    2.224993
