52 
6s9d_ligand_dft.xyz
 C    0.664909    2.492123    0.133224
 C    2.533219    0.895259   -0.304804
 C    4.580120    0.585859    0.135886
 C    5.912764    0.708161    0.528833
 C    6.737168   -0.401345    0.397774
 C    4.113272   -0.636988   -0.380120
 C   -0.309571   -2.662197   -0.581131
 C   -1.199109   -3.344541    0.461617
 C   -1.720514   -2.403180    1.548450
 C   -3.443863   -1.111879    0.434498
 C   -5.559338   -2.061299   -0.251671
 C   -5.090757    0.249010   -0.677698
 C   -3.827272    0.141923   -0.090932
 C   -2.909461    3.661999   -0.022790
 C   -1.575925    1.311034   -0.007688
 O    1.277369    3.378295    0.679557
 N    1.238309    1.371444   -0.449701
 N    3.563765    1.530676    0.164437
 C    6.252787   -1.615167   -0.114909
 C    4.929123   -1.755577   -0.514940
 N    2.775730   -0.416056   -0.674418
 C    1.804172   -1.389233   -1.128991
 C    0.909774   -1.936737   -0.010237
 O   -2.227506   -1.178395    1.042603
 C   -4.313222   -2.200935    0.350141
 C   -5.954231   -0.834721   -0.769244
 C   -2.973673    1.363793   -0.038544
 N   -3.622282    2.536738   -0.064965
 C   -1.522150    3.702611    0.045436
 C   -0.839937    2.490742    0.032046
 H    6.278567    1.649247    0.925481
 H    7.778146   -0.332513    0.698349
 H   -0.917884   -1.945911   -1.149875
 H    0.020846   -3.421400   -1.301783
 H   -0.642088   -4.144513    0.966437
 H   -2.034442   -3.824402   -0.059022
 H   -0.902253   -2.093605    2.203700
 H   -2.468384   -2.901136    2.177596
 H   -6.219157   -2.921866   -0.309442
 H   -5.384641    1.220446   -1.059535
 H   -3.483976    4.585388   -0.037682
 H   -1.094873    0.344439    0.035750
 H    0.610327    0.790202   -0.981396
 H    6.924754   -2.463724   -0.200065
 H    4.559002   -2.698311   -0.907419
 H    2.352908   -2.200802   -1.614814
 H    1.190972   -0.939920   -1.922657
 H    1.501732   -2.604851    0.627290
 H    0.589207   -1.104716    0.627974
 H   -4.031335   -3.162594    0.761533
 H   -6.925563   -0.719381   -1.238714
 H   -0.979129    4.638810    0.108288
