42 
6sbt_ligand_xtb.xyz
 N    0.767030    3.437934    0.104887
 N   -2.137623    0.602070   -0.576114
 C    0.565984   -0.180215   -0.415113
 C    1.885645   -0.572725   -0.219080
 C    2.839804    0.397362    0.121757
 C   -0.498316    3.915617   -0.103268
 C   -1.554987    2.864815   -0.368059
 C   -3.781184   -0.918234    0.280916
 C   -6.220092   -2.220258    0.049322
 C   -4.893597   -0.234176   -0.204384
 C    3.168637   -2.524117   -1.104942
 C    2.469203    1.731392    0.216027
 C   -3.907251   -2.248677    0.673998
 C   -5.120082   -2.898798    0.548906
 C   -6.107530   -0.888188   -0.315324
 C    4.274501    0.043492    0.409646
 C    2.006508   -4.103258   -0.285625
 C    1.429871   -2.953053    0.155577
 C    1.151127    2.118480    0.023169
 C    0.182088    1.143872   -0.267285
 C   -2.461469   -0.263839    0.454110
 F    4.414039   -1.102390    1.084165
 F    5.009877   -0.074193   -0.714082
 F    4.883266    0.987754    1.142872
 N   -1.129104    1.553163   -0.407417
 N    2.187538   -1.926560   -0.360771
 N    3.074500   -3.815204   -1.079499
 O   -1.684118   -0.516797    1.345799
 O   -0.753500    5.092967   -0.054647
 O   -2.724112    3.128469   -0.544646
 H    1.475598    4.132278    0.315893
 H   -2.898639    0.976936   -1.135507
 H   -0.162635   -0.926401   -0.684161
 H   -7.169254   -2.725884   -0.045522
 H   -4.834373    0.815641   -0.455003
 H    3.896889   -1.975635   -1.666288
 H    3.209464    2.476297    0.463679
 H   -3.042800   -2.758514    1.071721
 H   -5.209683   -3.932712    0.845648
 H   -6.970194   -0.354275   -0.684104
 H    1.725043   -5.117762   -0.089687
 H    0.600238   -2.764404    0.804991
