42 
6sbt_ligand_dft.xyz
 N    0.598629    3.378137    0.106238
 N   -2.060465    0.324845   -0.647139
 C    0.667419   -0.263222   -0.379866
 C    2.016719   -0.539689   -0.206377
 C    2.913503    0.496797    0.085763
 C   -0.714478    3.756412   -0.024612
 C   -1.701597    2.620756   -0.305651
 C   -3.930226   -0.942620    0.251291
 C   -6.393730   -2.185187   -0.093935
 C   -4.922963   -0.321790   -0.511592
 C    3.260435   -2.459263   -1.230540
 C    2.437404    1.798255    0.175615
 C   -4.182165   -2.171868    0.863113
 C   -5.408876   -2.796637    0.680113
 C   -6.155173   -0.944884   -0.679330
 C    4.384160    0.241970    0.317330
 C    2.572419   -4.050255    0.010947
 C    1.975485   -2.924939    0.500198
 C    1.086840    2.078894    0.003982
 C    0.194828    1.037468   -0.267633
 C   -2.609486   -0.293085    0.484090
 F    4.591591   -0.778212    1.154763
 F    5.024569   -0.038641   -0.832627
 F    4.986893    1.322332    0.842387
 N   -1.159474    1.350014   -0.426491
 N    2.428010   -1.892721   -0.300801
 N    3.367858   -3.751218   -1.070556
 O   -1.994901   -0.339066    1.527231
 O   -1.088218    4.899988    0.075094
 O   -2.884545    2.825365   -0.445647
 H    1.242822    4.133475    0.304574
 H   -2.675095    0.515895   -1.427694
 H   -0.019197   -1.070174   -0.601223
 H   -7.354435   -2.672180   -0.230912
 H   -4.758318    0.670797   -0.923731
 H    3.743476   -1.866891   -1.993669
 H    3.124011    2.605459    0.404020
 H   -3.409806   -2.624532    1.476535
 H   -5.600981   -3.758281    1.145392
 H   -6.932055   -0.456201   -1.258642
 H    2.480419   -5.063011    0.377054
 H    1.307967   -2.740043    1.327972
