55 
6sdd_ligand_ani.xyz
 C    1.230381   -0.040091   55.204657
 C   -0.791525    0.831724   56.188934
 C    0.826504    7.239918   58.063799
 C    1.016318    8.373193   58.843448
 C    1.137421   -1.181518   55.993546
 C   -0.909863   -0.316467   56.963838
 C   -0.422945   11.509171   58.425573
 C    1.740897    8.392656   56.140166
 C   -1.263747   12.611039   58.463947
 C    0.275195    0.970855   55.304043
 C    1.185256    7.244847   56.711909
 C    1.555447    9.516566   58.280514
 C    0.847053   11.646353   58.987450
 C    0.059699   -1.300848   56.856799
 C    1.915380    9.506983   56.937438
 C    1.192648   12.858420   59.563304
 C    0.265390   13.920034   59.542414
 C    0.430677    3.024978   52.240228
 C    0.339056    1.973989   53.091847
 C    0.824309    4.500906   54.142268
 C    0.659913    4.324824   52.771050
 C    0.517397    3.404630   55.037464
 C    1.328847    5.808534   54.686174
 C    0.652837    6.657665   49.983876
 C    0.541123    5.269500   50.577342
 N   -0.948576   13.790661   58.998395
 N    0.382830    2.128647   54.449224
 N    0.586504   15.147283   60.051627
 N    0.949377    6.077963   55.977542
 O    0.387522    3.497881   56.259651
 O    2.016759    6.566885   54.021634
 O    1.764925   10.640135   59.045638
 O    0.707997    5.406163   51.982489
 F   -0.048330   -2.406255   57.615066
 F    2.447954   10.616160   56.409745
Cl    2.746619   13.052419   60.307246
 H    2.058594    0.081570   54.511579
 H   -1.524541    1.625387   56.273894
 H    0.395919    6.344522   58.505392
 H    0.738566    8.395812   59.891658
 H    1.874469   -1.975382   55.934717
 H   -1.735004   -0.448947   57.656154
 H   -0.747653   10.578406   57.975359
 H    2.037344    8.420706   55.101015
 H   -2.259881   12.540801   58.034393
 H    0.343938    2.852986   51.175262
 H    0.198922    0.953590   52.750053
 H    1.632303    7.090785   50.206919
 H    0.529668    6.615272   48.897254
 H   -0.119525    7.312591   50.397068
 H   -0.439626    4.825049   50.356856
 H    1.316920    4.605055   50.171319
 H   -0.188631   15.775426   60.192104
 H    1.353412   15.209910   60.701628
 H    0.560555    5.280658   56.477097
