39 
6sfc_ligand_xtb.xyz
 C   -1.544584   -2.325432    0.383632
 C    0.385037   -2.036888   -0.638386
 C    2.532240   -1.338938   -1.566572
 C    3.657925    1.112956    1.849802
 C    2.953166    1.626434    0.789417
 C    1.755109    2.858647   -0.614592
 C    2.632835    0.846225   -0.322967
 C   -1.754361   -1.041153   -0.043913
 C   -2.870561   -0.156862    0.129210
 C   -4.156719   -0.408819    0.659508
 C   -4.809304    0.795957    0.573799
 C   -4.176105    3.065963   -0.252437
 N   -3.948959    1.679135    0.027998
 N   -2.777515    1.117895   -0.244004
 S   -0.354179   -0.470530   -0.926562
 N   -0.340482   -2.859057    0.044643
 C   -2.482884   -3.168811    1.179706
 N    1.597305   -2.365922   -1.153324
 C    2.985211   -0.482199   -0.410465
 C    3.701895   -1.002314    0.672204
 O    2.459924    2.890571    0.609739
 O    1.960839    1.610728   -1.237143
 C    4.033752   -0.226931    1.765071
 H    2.034977   -0.701988   -2.303046
 H    3.382104   -1.837309   -2.039104
 H    3.902618    1.719728    2.704936
 H    2.120933    3.661662   -1.270873
 H    0.677222    2.999705   -0.424329
 H   -4.548364   -1.329912    1.033609
 H   -5.804083    1.079379    0.854896
 H   -5.058606    3.190500   -0.882824
 H   -4.318095    3.631023    0.671995
 H   -3.300382    3.445380   -0.774880
 H   -2.808403   -2.643458    2.075889
 H   -3.360697   -3.428817    0.589169
 H   -1.968940   -4.082351    1.464428
 H    1.993274   -3.191163   -0.725617
 H    3.999108   -2.040074    0.645699
 H    4.589728   -0.665593    2.579006
