68 
6sfi_ligand_ani.xyz
 N   -7.347088   -0.900162   -0.129457
 C   -8.660075    3.232364    0.120557
 O   -4.276405   -3.515961   -1.270350
 N   -0.416612   -0.951165    0.033815
 C   -6.924063    3.393142    1.776998
 N    3.689506   -0.767832    1.473629
 C   -6.438891    2.158849    1.363703
 C   -7.079878    1.455175    0.347798
 C   -4.069463   -2.362190   -0.911460
 C   -5.187473   -1.460603   -0.546368
 C   -5.245925   -0.113069   -0.247361
 C   -6.532464   -1.886709   -0.453972
 N   -6.550625    0.182404   -0.017370
 C   -8.042575    3.930516    1.153810
 C   -8.199606    1.986698   -0.314434
 C   -8.884112    1.299162   -1.467878
 N   -2.813421   -1.850603   -0.835432
 C   -1.684283   -2.687330   -1.157660
 C   -0.448531   -2.131813   -0.516858
 S    1.047604   -2.998253   -0.492420
 C    1.767068   -1.667673    0.343454
 C    0.837045   -0.682449    0.520290
 C    3.198921   -1.771454    0.705579
 O    3.885018   -2.717053    0.328490
 C    5.036310   -0.813110    1.994158
 C    5.068037    0.114244    3.211287
 O    4.158895    0.895579    3.441231
 N    6.190736    0.048189    3.974367
 C    6.076504   -0.398424    0.936290
 C    5.916801    1.045680    0.463485
 C    6.787345    1.420227   -0.740056
 C    6.786969    2.941327   -0.942337
 C    7.634222    3.368168   -2.143413
 C    7.169603    2.665773   -3.421165
 C    7.170530    1.146661   -3.239114
 C    6.327419    0.728707   -2.031603
 H   -9.528135    3.663809   -0.374698
 H   -6.424389    3.930551    2.578265
 H    3.091039   -0.086722    1.924977
 H   -5.566510    1.718976    1.841266
 H   -4.497600    0.669811   -0.212143
 H   -6.909345   -2.886040   -0.612184
 H   -8.433179    4.896403    1.464433
 H   -9.404058    0.393832   -1.139659
 H   -8.156049    0.985177   -2.221860
 H   -9.609105    1.971780   -1.937119
 H   -2.589431   -0.956978   -0.415856
 H   -1.881645   -3.713797   -0.822846
 H   -1.544371   -2.753852   -2.246999
 H    1.005239    0.283461    0.985303
 H    5.265448   -1.844114    2.291579
 H    6.212376    0.573128    4.835901
 H    6.870725   -0.682563    3.843273
 H    5.962752   -1.103330    0.106881
 H    7.082706   -0.552374    1.345065
 H    6.150141    1.720095    1.299015
 H    4.862939    1.227779    0.208563
 H    7.828637    1.111262   -0.540442
 H    5.747063    3.271552   -1.092572
 H    7.142642    3.436814   -0.029197
 H    7.601271    4.457357   -2.267232
 H    8.685069    3.105715   -1.950474
 H    6.149657    2.998685   -3.663534
 H    7.801649    2.952410   -4.270585
 H    8.204193    0.803735   -3.086162
 H    6.807330    0.649586   -4.146573
 H    6.353493   -0.362460   -1.917811
 H    5.273617    0.994806   -2.212060
