72 
6sfj_ligand_xtb.xyz
 N   -5.746721   -0.611541    0.103924
 C    0.241768   -5.441803   -0.233816
 O    3.892880   -3.460264   -0.945511
 N    3.080933   -1.626624    0.084926
 C    1.595242   -3.463743   -0.336883
 N    5.819116   -2.545449    0.846827
 C    0.444618   -2.687503   -0.282845
 C   -0.806584   -3.284916   -0.189695
 C    2.951845   -2.862194   -0.435448
 C    4.316143   -0.864060    0.023857
 C    5.267769   -1.355137    1.138866
 O    5.487378   -0.732238    2.153741
 C    4.020800    0.626545    0.153872
 C    5.242513    1.465807   -0.215047
 C    5.035514    2.969009   -0.002556
 C    4.058408    3.567309   -1.016337
 C    3.884085    5.066882   -0.790577
 C    5.225662    5.785636   -0.883405
 C    6.204803    5.199999    0.128267
 C    6.376053    3.701439   -0.100270
 C    1.486836   -4.849466   -0.323722
 C   -0.917774   -4.684872   -0.160949
 C   -2.255364   -5.360013   -0.061468
 N   -1.972714   -2.518996   -0.129721
 C   -2.104537   -1.163312    0.001338
 O   -1.176085   -0.380414    0.077750
 C   -3.503296   -0.715993    0.051076
 C   -3.900004    0.608817    0.136657
 N   -5.244630    0.624363    0.163288
 C   -4.722834   -1.429765    0.039101
 C   -6.060716    1.764322    0.290399
 C   -7.289824    1.853411   -0.370749
 C   -7.797950    0.754029   -1.247168
 C   -8.035109    3.013109   -0.197687
 C   -7.587349    4.054580    0.594382
 C   -6.367817    3.953094    1.241181
 C   -5.609455    2.808181    1.091919
 H    0.165780   -6.519345   -0.218776
 H    2.315465   -1.212441    0.593017
 H    5.458512   -3.082526    0.064026
 H    6.385601   -3.002350    1.543562
 H    0.493130   -1.613124   -0.337846
 H    4.786893   -1.085296   -0.942034
 H    3.745482    0.834849    1.189930
 H    3.178040    0.876005   -0.493005
 H    6.076354    1.139720    0.409271
 H    5.511558    1.281517   -1.258330
 H    4.632761    3.122380    1.004573
 H    4.440373    3.396158   -2.025967
 H    3.086449    3.077672   -0.937711
 H    3.190824    5.473879   -1.530411
 H    3.452771    5.234902    0.199152
 H    5.631578    5.667526   -1.890941
 H    5.091322    6.853954   -0.699719
 H    5.825715    5.370225    1.138657
 H    7.172117    5.700528    0.045657
 H    7.069686    3.293495    0.637870
 H    6.805496    3.532738   -1.091012
 H    2.383924   -5.445489   -0.383863
 H   -2.126890   -6.438733   -0.032852
 H   -2.881124   -5.120935   -0.922940
 H   -2.780556   -5.059439    0.846164
 H   -2.830253   -3.048612   -0.153573
 H   -3.299757    1.494441    0.148579
 H   -4.904982   -2.486228   -0.011046
 H   -8.079094   -0.106675   -0.643800
 H   -8.663435    1.089101   -1.812852
 H   -7.026866    0.424397   -1.940947
 H   -8.986216    3.099286   -0.702202
 H   -8.189307    4.943190    0.707689
 H   -6.009677    4.757580    1.864770
 H   -4.667631    2.712357    1.610630
