72 
6sfk_ligand_ani.xyz
 N    3.791314    2.583618   -0.840871
 C    0.222341   -4.866762    0.548069
 O   -3.756710   -3.632318    1.111691
 N   -3.346446   -1.698936    0.003027
 C   -1.502144   -3.195811    0.466222
 N   -6.013374   -3.155622   -0.644394
 C   -0.540832   -2.220448    0.207843
 C    0.800175   -2.573196    0.123176
 C   -2.958569   -2.872914    0.564072
 C   -4.718592   -1.218888    0.087457
 C   -5.590345   -1.911507   -0.986115
 O   -5.870939   -1.371297   -2.044051
 C   -4.764788    0.299349   -0.065736
 C   -6.141470    0.892094    0.240152
 C   -6.267975    2.397743   -0.021909
 C   -5.359601    3.247066    0.876133
 C   -5.536657    4.745120    0.611979
 C   -6.996317    5.174167    0.774116
 C   -7.913129    4.339616   -0.122779
 C   -7.727249    2.844185    0.143680
 C   -1.118381   -4.518821    0.660179
 C    1.202100   -3.917850    0.270105
 C    2.643936   -4.329028    0.128717
 N    1.793800   -1.591377   -0.089481
 C    1.608399   -0.332612   -0.588258
 O    0.531801    0.093361   -0.988180
 C    2.800430    0.555890   -0.614693
 C    4.151424    0.432147   -0.288878
 C    5.077249   -0.717962   -0.020831
 F    5.368933   -0.842698    1.287531
 F    6.237956   -0.583342   -0.678243
 F    4.539207   -1.895860   -0.415999
 N    4.683833    1.686147   -0.380725
 C    2.669140    1.914924   -0.965863
 C    5.997953    2.142560   -0.048169
 C    6.742271    2.783664   -1.034852
 C    8.028267    3.229825   -0.753593
 C    8.560244    3.069930    0.522851
 C    7.799698    2.463851    1.516771
 C    6.518718    1.999691    1.238523
 H    0.520761   -5.905132    0.680365
 H   -2.712180   -1.226595   -0.625339
 H   -6.497406   -3.682185   -1.356990
 H   -5.538644   -3.654161    0.099527
 H   -0.795814   -1.171672    0.099979
 H   -5.081621   -1.517906    1.078458
 H   -4.478601    0.548227   -1.095214
 H   -4.006841    0.719286    0.608028
 H   -6.887741    0.373369   -0.374873
 H   -6.405536    0.687043    1.289301
 H   -5.977016    2.587669   -1.070320
 H   -5.604792    3.030563    1.928018
 H   -4.308144    2.968867    0.736039
 H   -5.210599    4.965751   -0.415249
 H   -4.888213    5.328148    1.277124
 H   -7.110391    6.242760    0.554222
 H   -7.297228    5.036468    1.823095
 H   -8.961549    4.626487    0.023088
 H   -7.674508    4.548727   -1.176096
 H   -8.372422    2.253779   -0.520604
 H   -8.044801    2.615161    1.173263
 H   -1.879696   -5.256327    0.892740
 H    2.738541   -5.417040    0.198795
 H    3.272927   -3.899657    0.917873
 H    3.060129   -4.022010   -0.836941
 H    2.736541   -1.858183    0.138329
 H    1.763640    2.401945   -1.301616
 H    6.301866    2.934539   -2.016597
 H    8.610713    3.714577   -1.532941
 H    9.564091    3.424898    0.743434
 H    8.203785    2.344393    2.518357
 H    5.931022    1.534393    2.024336
