25 
6sze_ligand_xtb.xyz
 N   -4.370631   -0.596853    0.082642
 C   -3.329954    0.258524   -0.068900
 O   -3.507604    1.439846   -0.344387
 C   -2.001428   -0.312516    0.084451
 C   -1.539895   -1.631855    0.286930
 N   -0.233916   -1.689847    0.277387
 N    0.209293   -0.421856    0.089798
 C   -0.828829    0.441746   -0.045454
 N   -0.745792    1.784489   -0.226504
 C    1.585284   -0.167216    0.047869
 C    2.110734    1.041829    0.492508
 C    3.476270    1.256689    0.428681
 C    4.320339    0.273970   -0.059584
 C    3.796316   -0.940356   -0.473721
 C    2.434314   -1.164508   -0.423492
 H   -5.305580   -0.238726   -0.009276
 H   -4.235589   -1.556476    0.339693
 H   -2.106022   -2.531356    0.431870
 H   -1.663187    2.174758   -0.435758
 H    0.031597    2.143731   -0.757890
 H    1.462831    1.793634    0.915009
 H    3.882077    2.196177    0.773620
 H    5.384411    0.449755   -0.106715
 H    4.452407   -1.715395   -0.840608
 H    2.006297   -2.104241   -0.733830
