51 
6t1i_ligand_dft.xyz
 C    6.849022    0.315865    1.297091
 C    4.919666   -0.695474    0.265902
 C    3.905216   -1.807161    0.153224
 C    1.549207   -2.104869   -0.399340
 O   -8.551831    0.576881    1.015606
 C    6.730536    1.351873    0.358666
 C    5.926127   -0.708887    1.240105
 O    1.766509   -3.237874   -0.807722
 C   -7.755112    1.254864    0.391200
 C   -8.183797    2.575838   -0.221249
 C   -6.346138    0.811798    0.211308
 C   -5.392811    1.546408   -0.499117
 C   -4.091181    1.093732   -0.643550
 C   -5.944450   -0.403053    0.778521
 C   -4.649898   -0.867259    0.650383
 C   -3.685166   -0.125882   -0.065745
 N   -2.392868   -0.588795   -0.187734
 C   -1.327447    0.257833   -0.686900
 C    0.018866   -0.157277   -0.099597
 C   -2.077602   -1.994228    0.034755
 C   -0.836369   -2.396762   -0.749620
 N    0.287503   -1.558948   -0.370825
 N    2.559273   -1.268827    0.039979
 C    4.908280    0.385781   -0.605589
 N    5.786592    1.395304   -0.569457
 O    7.635783    2.342563    0.431127
 C    7.522703    3.389134   -0.522620
 H    7.642725    0.344211    2.034333
 H    3.997262   -2.486332    1.012763
 H    4.078998   -2.415652   -0.738291
 H    5.980745   -1.528217    1.953002
 H   -8.047871    2.564834   -1.308491
 H   -9.236629    2.742985    0.009393
 H   -7.588188    3.404259    0.178064
 H   -5.663313    2.488268   -0.967711
 H   -3.398937    1.678013   -1.238931
 H   -6.678174   -0.974448    1.338144
 H   -4.373283   -1.797387    1.133972
 H   -1.513799    1.289488   -0.375871
 H   -1.271316    0.248956   -1.786714
 H    0.007145    0.044998    0.982846
 H    0.798877    0.464823   -0.552888
 H   -2.914841   -2.612247   -0.307604
 H   -1.922034   -2.204828    1.103484
 H   -1.036695   -2.327712   -1.827886
 H   -0.574695   -3.433596   -0.534791
 H    2.324545   -0.559733    0.719860
 H    4.144309    0.450517   -1.377960
 H    7.620567    3.005071   -1.542127
 H    6.560105    3.901130   -0.433536
 H    8.339405    4.075256   -0.295857
