24 
6t6a_ligand_dft.xyz
 C    5.619119   10.538901   27.184198
 C    4.584201   11.548408   26.981338
 C    4.492156   12.308093   25.722278
 C    5.754447    9.763263   28.392098
 C    5.048059    9.716126   29.603933
 C    5.465180    8.823949   30.575489
 C    6.568956    7.974050   30.376538
 C    7.269060    8.014664   29.187458
 C    6.858174    8.909499   28.200376
 O    3.760307   11.786182   27.864047
 C    5.237130   12.277814   24.592646
 C    6.380893   11.476839   24.249851
 C    6.997662   10.534272   25.000359
 C    6.637057   10.125892   26.321233
 N    7.370145    9.146072   26.951546
Cl    8.647417    6.979852   28.891675
 H    3.660873   13.008260   25.753157
 H    4.200293   10.371943   29.752552
 H    4.933524    8.770620   31.520007
 H    6.876977    7.282975   31.153715
 H    4.928237   12.968197   23.810413
 H    6.795158   11.657431   23.261640
 H    7.857208   10.027409   24.566474
 H    8.165770    8.669287   26.556978
