96 
6udi_ligand_xtb.xyz
 C    4.146485   -0.830747    2.208370
 C    4.903781    0.373617    2.749275
 C    6.344993    0.314757    2.263785
 C    6.430566    0.089203    0.780152
 C    7.619153    0.413312    0.135382
 C    7.766988    0.194641   -1.220349
Cl    9.255831    0.611832   -1.997122
 C    6.733547   -0.356079   -1.959049
 C    5.552360   -0.673267   -1.318418
 C    5.379278   -0.460951    0.047329
 C    4.046178   -0.801751    0.678746
 C    3.000846    0.233186    0.198536
 C    3.542023   -2.189779    0.218385
 O    2.962702   -2.204058   -1.065506
 C    1.620783   -1.906299   -1.162077
 C    0.918222   -2.638942   -2.106374
 C   -0.436793   -2.454401   -2.306498
 C   -1.108221   -1.519065   -1.537799
 C   -0.412191   -0.769635   -0.601000
 C    0.958633   -0.926499   -0.393508
 N    1.649393   -0.159245    0.532432
 C    0.943038    0.636305    1.508245
 C    0.490530    2.025930    1.044357
 C    1.449464    3.212513    1.263988
 C    0.314011    3.998614    1.935073
 C   -0.532704    2.713116    1.970179
 C   -1.994535    2.745468    1.524690
 O   -2.705823    3.417552    2.563707
 C   -4.098270    3.247155    2.514206
 C   -2.240699    3.413019    0.199024
 C   -3.186385    3.005460   -0.633710
 C   -3.571607    3.716419   -1.893399
 C   -3.626329    2.790441   -3.120754
 N   -4.554699    1.693077   -2.968208
 C   -5.953357    2.024132   -3.140719
 C   -4.220892    0.421319   -2.681407
 O   -5.063547   -0.466967   -2.616754
 C   -2.747388    0.111111   -2.471412
 C   -2.588044   -1.252880   -1.769172
 O   -3.146464   -2.300048   -2.516992
 C   -3.245214   -1.174856   -0.378648
 O   -3.243937   -0.171550    0.302098
 N   -3.726976   -2.357413    0.045774
 S   -4.399787   -2.644218    1.590008
 O   -5.482749   -1.757232    1.828212
 O   -4.629362   -4.050002    1.572677
 N   -3.189647   -2.333798    2.656801
 C   -3.060027   -0.993696    3.173211
 C   -1.969511   -3.051942    2.389958
 H    4.675949   -1.739727    2.505721
 H    3.142398   -0.879633    2.631839
 H    4.439536    1.299681    2.406312
 H    4.878468    0.372471    3.840491
 H    6.875085    1.232629    2.525792
 H    6.859740   -0.511345    2.765246
 H    8.434068    0.838649    0.701425
 H    6.851729   -0.532150   -3.016289
 H    4.750939   -1.115284   -1.889290
 H    3.098578    0.344347   -0.886890
 H    3.211602    1.204373    0.643921
 H    4.383448   -2.887566    0.165707
 H    2.819965   -2.568427    0.952384
 H    1.465431   -3.369913   -2.680582
 H   -0.972935   -3.031292   -3.040536
 H   -0.950942   -0.028341   -0.035490
 H    0.067765    0.067892    1.835971
 H    1.595726    0.757291    2.379007
 H    0.136447    1.981025    0.013208
 H    1.873267    3.655264    0.364598
 H    2.256437    2.981736    1.958326
 H    0.540862    4.427499    2.907730
 H   -0.100767    4.778750    1.304706
 H   -0.517687    2.273775    2.970211
 H   -2.367343    1.710254    1.458153
 H   -4.490533    3.688632    3.428697
 H   -4.538637    3.755453    1.648291
 H   -4.366315    2.184794    2.471299
 H   -1.684374    4.316645   -0.007168
 H   -3.754546    2.113854   -0.402685
 H   -2.868177    4.524772   -2.101837
 H   -4.559123    4.164382   -1.749513
 H   -2.629345    2.406985   -3.334767
 H   -3.950054    3.378914   -3.986891
 H   -6.531968    1.106041   -3.066452
 H   -6.113452    2.477977   -4.120711
 H   -6.285124    2.716155   -2.365539
 H   -2.243276    0.060050   -3.440190
 H   -2.274291    0.870179   -1.851259
 H   -4.052684   -2.002639   -2.736339
 H   -3.714717   -3.120378   -0.619590
 H   -2.369366   -0.389468    2.579252
 H   -2.712461   -1.038755    4.206579
 H   -4.047348   -0.542838    3.137723
 H   -1.352514   -2.553367    1.630877
 H   -2.249624   -4.041353    2.037208
 H   -1.397684   -3.145138    3.313563
