73 
6udu_ligand_dft.xyz
 C    3.480307    0.041036    2.414801
 C    4.827688   -0.491973    2.888217
 C    5.936702    0.248889    2.147302
 C    5.718359    0.256967    0.648209
 C    6.820592    0.494323   -0.177185
 C    6.683649    0.481130   -1.555277
Cl    8.080074    0.791039   -2.564432
 C    5.456202    0.206339   -2.143929
 C    4.362426   -0.025952   -1.322349
 C    4.458721    0.019592    0.074787
 C    3.219006   -0.255794    0.926595
 C    2.028155    0.608001    0.456387
 C    2.791041   -1.736387    0.772773
 O    2.064018   -1.957904   -0.425994
 C    0.696438   -1.835694   -0.342250
 C   -0.046368   -2.779802   -1.037978
 C   -1.437581   -2.763289   -1.032939
 C   -2.091584   -1.788039   -0.292476
 C   -1.350213   -0.837793    0.406057
 C    0.048170   -0.810712    0.386065
 N    0.777002    0.175779    1.067750
 C    0.042475    1.180829    1.816838
 C   -0.681360    2.232789    0.953491
 C   -1.880143    2.850456    1.674503
 C   -2.688701    3.837150    0.813440
 C   -3.301581    3.174106   -0.388119
 C   -4.591834    2.872621   -0.521227
 C   -5.164982    2.156982   -1.715828
 N   -6.014999    1.021599   -1.359768
 C   -7.441396    1.276804   -1.260170
 C   -5.532048   -0.204958   -1.032979
 O   -6.277749   -1.137205   -0.719824
 C   -4.025178   -0.403780   -1.070624
 C   -3.615823   -1.679437   -0.304845
 C   -4.099091   -1.531264    1.149948
 O   -4.154384   -0.474483    1.742950
 O   -4.417655   -2.696360    1.717622
 O   -4.144300   -2.822605   -0.910786
 H    3.471720    1.129646    2.568214
 H    2.653713   -0.363234    3.008923
 H    4.903728   -1.570278    2.698380
 H    4.938831   -0.351182    3.968445
 H    6.914953   -0.192790    2.367389
 H    5.977581    1.285525    2.511194
 H    7.794521    0.680700    0.265903
 H    5.358760    0.166720   -3.223211
 H    3.415040   -0.279743   -1.785183
 H    1.937052    0.593717   -0.634382
 H    2.215023    1.649996    0.734406
 H    3.666634   -2.388164    0.716210
 H    2.183534   -2.044547    1.632004
 H    0.500920   -3.545510   -1.578513
 H   -2.007623   -3.504849   -1.578357
 H   -1.892421   -0.088325    0.967764
 H   -0.677886    0.665873    2.462227
 H    0.750809    1.671004    2.493725
 H   -1.016680    1.748915    0.030003
 H    0.025015    3.017304    0.651014
 H   -2.556534    2.048230    1.999103
 H   -1.538442    3.365139    2.582218
 H   -2.034272    4.657656    0.489190
 H   -3.479259    4.281730    1.428748
 H   -2.617611    2.890291   -1.190006
 H   -5.298356    3.132061    0.267325
 H   -4.363012    1.829199   -2.384770
 H   -5.794462    2.837170   -2.301798
 H   -7.933339    0.366355   -0.922633
 H   -7.635871    2.080715   -0.540692
 H   -7.846853    1.570926   -2.235004
 H   -3.515072    0.463476   -0.649335
 H   -3.691400   -0.524023   -2.108038
 H   -4.688596   -2.484086    2.625239
 H   -5.107148   -2.675314   -0.915370
