80 
6udv_ligand_ani.xyz
 C   -4.013571    1.553919   -1.946627
 C   -4.940530    2.380180   -1.060146
 C   -6.140627    1.537645   -0.640153
 C   -5.749803    0.171571   -0.111618
 C   -6.661736   -0.528165    0.684752
 C   -6.372797   -1.806292    1.133528
Cl   -7.527720   -2.659025    2.119094
 C   -5.171737   -2.421287    0.799064
 C   -4.262978   -1.722039    0.020534
 C   -4.521996   -0.422052   -0.433866
 C   -3.435621    0.318571   -1.225299
 C   -2.294918    0.721734   -0.253693
 C   -2.806853   -0.596451   -2.301941
 O   -1.783816   -1.448910   -1.781208
 C   -0.500746   -0.959894   -1.789077
 C    0.493713   -1.883329   -2.098841
 C    1.820849   -1.505658   -2.206793
 C    2.155994   -0.167019   -2.017064
 C    1.164839    0.761126   -1.695821
 C   -0.167466    0.381862   -1.461787
 N   -1.122996    1.264564   -0.932529
 C   -0.802196    2.656790   -0.672105
 C   -0.388912    3.007679    0.756705
 C    0.220741    4.406789    0.975722
 C    1.253030    3.780530    1.936988
 C    0.899235    2.394308    1.362871
 C    0.765462    1.234263    2.347946
 O    0.075684    0.132377    1.780622
 C    2.121191    0.870211    2.891867
 C    2.672285   -0.340783    2.859071
 C    4.116174   -0.625478    3.160049
 C    4.867531   -1.288565    1.986908
 C    6.320113   -1.565344    2.380472
 C    4.731735   -0.456065    0.692999
 C    5.549849    0.832561    0.652245
 S    5.062943   -1.491782   -0.755959
 O    6.499014   -1.664160   -0.925961
 O    4.179641   -2.643585   -0.697810
 N    4.634376   -0.512689   -2.071958
 C    3.534866    0.362739   -2.205558
 O    3.743716    1.525707   -2.487040
 H   -3.181071    2.159421   -2.325473
 H   -4.575449    1.199362   -2.821172
 H   -5.275187    3.279260   -1.590640
 H   -4.400353    2.727651   -0.168249
 H   -6.802703    1.396261   -1.507094
 H   -6.740482    2.061103    0.113817
 H   -7.611584   -0.070321    0.949664
 H   -4.957329   -3.426635    1.146963
 H   -3.324886   -2.195701   -0.250854
 H   -2.665414    1.469118    0.456232
 H   -2.002346   -0.158070    0.334061
 H   -2.376747    0.005611   -3.111440
 H   -3.573613   -1.253602   -2.725178
 H    0.192802   -2.910584   -2.274356
 H    2.584973   -2.242262   -2.428255
 H    1.477723    1.796285   -1.625247
 H   -0.017566    2.961197   -1.370133
 H   -1.679136    3.270729   -0.925558
 H   -1.226139    2.840028    1.446116
 H    0.691499    4.778439    0.058466
 H   -0.438385    5.186993    1.366342
 H    0.952871    3.873087    2.987450
 H    2.292642    4.104603    1.838886
 H    1.598890    2.119049    0.564110
 H    0.144212    1.574101    3.189091
 H    0.459000   -0.015280    0.902104
 H    2.665679    1.712079    3.322357
 H    2.077167   -1.193330    2.526582
 H    4.627458    0.303364    3.456279
 H    4.181169   -1.308607    4.017392
 H    4.370235   -2.243791    1.772099
 H    6.358940   -2.253956    3.231724
 H    6.830770   -0.641657    2.680643
 H    6.876830   -2.008037    1.549252
 H    3.666406   -0.217093    0.576762
 H    5.261713    1.459292   -0.199863
 H    6.623160    0.624736    0.585096
 H    5.370843    1.419303    1.560480
 H    5.483276   -0.089094   -2.443108
