19 
6ugq_ligand_ani.xyz
 O   17.342750   -0.632646   14.742533
 O   15.856947    1.176568   18.168398
 O   13.567010    1.206627   17.116109
 C   15.077349    5.132333   15.759662
 C   16.259878    5.172754   15.023080
 C   17.004842    4.015356   14.838358
 C   16.586241    2.789545   15.371583
 C   15.419040    2.790894   16.140737
 C   14.656625    3.935239   16.323869
 C   16.778349    0.329117   15.206675
 N   17.292832    1.613053   15.146613
 N   15.516888    0.231040   15.813814
 S   15.008185    1.306498   16.997260
Cl   18.479064    4.089870   13.915309
 H   14.493908    6.036581   15.895750
 H   16.611626    6.101355   14.583486
 H   13.742788    3.869270   16.907628
 H   18.154047    1.677920   14.623044
 H   15.199630   -0.722373   15.948091
