42 
6ul8_ligand_ani.xyz
 C   -3.967996   -1.226767    1.491039
 C   -2.861978   -2.116036   -0.631240
 C    1.666698   -0.503304   -0.340130
 C    4.413121   -0.739072   -0.046767
 C    5.741044    0.702157    1.389142
 C    3.722153    0.248660    0.669349
 N    0.976276    2.523982   -1.188696
 C   -0.315004    2.191203   -0.911355
 O   -1.194983    3.054687   -0.862727
 C   -0.613077    0.765730   -0.677028
 C   -1.921553    0.272429   -0.654632
 N   -3.069749    1.017008   -0.732101
 C   -4.314252    0.654236   -0.071869
 C   -4.924309   -0.625824   -0.655608
 C   -4.177368   -1.759585    0.059686
 C   -4.129549    0.307482    1.427564
 O   -5.292614    0.635978    2.170194
 N   -1.830905   -1.080356   -0.578473
 N   -0.542822   -1.494165   -0.514257
 C    0.198525   -0.397438   -0.518186
 C    2.371314   -1.507713   -1.021890
 C    3.744548   -1.625741   -0.893113
 S    6.109051   -0.633966    0.326046
 N    4.506667    1.056498    1.479589
 C    2.336107    0.359491    0.516894
 H   -2.993663   -1.520160    1.892444
 H   -4.736952   -1.604031    2.169426
 H   -3.044377   -2.393594   -1.677553
 H   -2.402093   -2.978717   -0.143647
 H    6.543784    1.189602    1.933820
 H    1.645189    1.817412   -1.453041
 H    1.136625    3.476791   -1.480349
 H   -2.838406    2.009284   -0.773561
 H   -4.989654    1.509337   -0.185677
 H   -4.824276   -0.663285   -1.744183
 H   -5.989571   -0.663265   -0.396729
 H   -4.774338   -2.678548    0.061939
 H   -3.244778    0.820985    1.833469
 H   -5.333905    1.596944    2.259725
 H    1.820108   -2.195938   -1.657310
 H    4.286026   -2.396664   -1.433802
 H    1.809432    1.131773    1.064975
