45 
6un1_ligand_dft.xyz
 O    1.795491    2.581708   -1.375072
 C    1.554798    1.907569   -0.413269
 C    0.466531    1.886721    0.711960
 O    0.416345    2.958249    1.584794
 C    0.112873    4.203930    0.964215
 C    1.307635    0.703890    1.296602
 S    0.662109   -0.989885    1.244625
 C    2.176785   -1.580143    0.346568
 C    3.253617   -1.973826    1.365558
 C    1.795105   -2.767273   -0.536210
 C    2.622722   -0.361929   -0.533694
 C    4.100045   -0.456711   -0.871758
 O    4.539406   -1.257841   -1.663442
 O    4.869820    0.403727   -0.195271
 N    2.233371    0.842300    0.169208
 N   -0.858707    1.571517    0.243317
 C   -1.133084    0.840602   -0.864558
 O   -0.299328    0.436789   -1.655566
 C   -2.605833    0.429619   -1.059039
 C   -3.635250    1.420461   -0.561603
 O   -4.646895    1.563424   -1.420876
 O   -3.595459    2.010204    0.499579
 C   -2.785190   -0.913791   -0.373942
 C   -3.094640   -1.096351    1.010880
 C   -3.079023   -2.407563    1.377440
 S   -2.679700   -3.435873    0.054462
 C   -2.540333   -2.094768   -1.011753
 H   -0.880144    4.184461    0.499901
 H    0.859312    4.456118    0.204989
 H    0.126630    4.946883    1.762064
 H    1.758617    0.946710    2.260781
 H    4.129132   -2.391030    0.854785
 H    2.862920   -2.735437    2.045186
 H    3.577379   -1.115178    1.962382
 H    0.977521   -2.497611   -1.211024
 H    1.479591   -3.618641    0.075423
 H    2.661623   -3.069702   -1.133016
 H    2.084438   -0.400371   -1.486928
 H    5.779139    0.241255   -0.495149
 H   -1.628202    1.820611    0.857208
 H   -2.735356    0.301722   -2.134339
 H   -5.278121    2.180910   -1.015286
 H   -3.317798   -0.285525    1.693955
 H   -3.277359   -2.826700    2.353927
 H   -2.256121   -2.235790   -2.045490
