45 
6un1_ligand_ani.xyz
 O    2.211593    2.227275   -1.529714
 C    1.894922    1.701747   -0.503759
 C    0.791620    1.962323    0.568699
 O    0.959454    3.121227    1.300734
 C    0.856789    4.312722    0.523582
 C    1.482150    0.758072    1.302375
 S    0.624773   -0.811627    1.504818
 C    1.932484   -1.746511    0.604325
 C    2.999806   -2.202197    1.596793
 C    1.276311   -2.926343   -0.102122
 C    2.476260   -0.709435   -0.413000
 C    3.863655   -1.021140   -0.937159
 O    4.206388   -2.108117   -1.342582
 O    4.656196    0.051914   -0.926763
 N    2.436950    0.614297    0.207912
 N   -0.571848    1.808726    0.163226
 C   -0.996068    0.919046   -0.775626
 O   -0.272565    0.274739   -1.517833
 C   -2.515031    0.699802   -0.900608
 C   -3.405316    1.778489   -0.311507
 O   -4.589562    1.805518   -0.930926
 O   -3.140072    2.522932    0.608190
 C   -2.887669   -0.676709   -0.376398
 C   -3.092045   -1.017302    1.000164
 C   -3.297927   -2.350309    1.186012
 S   -3.262803   -3.210869   -0.304330
 C   -2.959702   -1.768484   -1.189426
 H   -0.154575    4.420138    0.114546
 H    1.579979    4.311844   -0.299926
 H    1.068943    5.137426    1.205011
 H    1.929673    1.089464    2.241899
 H    3.764534   -2.787249    1.078816
 H    2.543951   -2.814536    2.379545
 H    3.473266   -1.334296    2.068421
 H    0.494979   -2.571064   -0.781504
 H    0.817926   -3.592520    0.633548
 H    2.026092   -3.480995   -0.675974
 H    1.809618   -0.721710   -1.286958
 H    5.505728   -0.231309   -1.303334
 H   -1.275701    2.293404    0.711435
 H   -2.698707    0.699602   -1.977926
 H   -5.111185    2.503457   -0.499560
 H   -3.085460   -0.293233    1.811580
 H   -3.463963   -2.876701    2.117191
 H   -2.845206   -1.799478   -2.265506
