44 
6upj_ligand_xtb.xyz
 C    0.351357    0.760341   -0.088281
 C   -0.347125    1.680184   -0.950937
 O    0.097534    2.717362   -1.389965
 O   -1.630013    1.336367   -1.312123
 C   -2.225186    0.211995   -0.887739
 C   -1.598331   -0.691508   -0.097116
 C   -0.248449   -0.406593    0.300257
 O    0.365050   -1.332844    1.063725
 C    2.740395    0.093681   -0.027479
 C    2.882120   -0.215614   -1.378827
 C    3.757595   -1.199364   -1.794458
 C    4.512213   -1.896687   -0.864250
 C    4.383451   -1.598049    0.479128
 C    3.502990   -0.611965    0.897366
 C    1.744722    1.170808    0.346260
 C    1.760532    1.586413    1.825563
 C    0.828321    2.765692    2.079494
 C   -3.637438    0.075505   -1.365618
 C   -4.647293    0.091598   -0.211976
 C   -4.743334   -1.237816    0.532594
 C   -3.479292   -1.629105    1.294978
 C   -2.283699   -1.935625    0.386974
 H    1.300974   -1.101016    1.170179
 H    2.298209    0.333169   -2.103718
 H    3.855758   -1.421482   -2.846658
 H    5.199175   -2.664441   -1.186884
 H    4.970154   -2.132398    1.212015
 H    3.433050   -0.392406    1.952736
 H    1.983718    2.062733   -0.246252
 H    2.779548    1.872139    2.095583
 H    1.456654    0.754814    2.467272
 H    1.073840    3.594116    1.420171
 H    0.915120    3.101730    3.110313
 H   -0.206610    2.484974    1.896203
 H   -3.834814    0.910429   -2.038983
 H   -3.746261   -0.855672   -1.926847
 H   -5.631115    0.324440   -0.624366
 H   -4.384023    0.887962    0.486468
 H   -5.569296   -1.172257    1.245116
 H   -4.988964   -2.029217   -0.179843
 H   -3.208723   -0.832952    1.991376
 H   -3.701505   -2.521531    1.884175
 H   -2.622671   -2.527615   -0.466790
 H   -1.554077   -2.525945    0.940036
