44 
6upj_ligand_ani.xyz
 C    0.349054    0.722473   -0.119910
 C   -0.386137    1.713059   -0.895022
 O    0.030360    2.792651   -1.241180
 O   -1.668824    1.377896   -1.266907
 C   -2.296832    0.241248   -0.846886
 C   -1.655660   -0.680896   -0.079215
 C   -0.288471   -0.441506    0.233415
 O    0.347988   -1.410878    0.937996
 C    2.803375    0.062173   -0.020764
 C    3.008423   -0.197204   -1.381229
 C    3.968742   -1.110393   -1.801885
 C    4.752962   -1.781396   -0.867362
 C    4.567362   -1.527467    0.488114
 C    3.603024   -0.611913    0.907717
 C    1.736299    1.100455    0.346922
 C    1.750487    1.497644    1.835854
 C    0.851153    2.692174    2.140239
 C   -3.697577    0.145631   -1.353169
 C   -4.785647    0.069209   -0.263014
 C   -4.862527   -1.273342    0.462998
 C   -3.615621   -1.658959    1.260007
 C   -2.361250   -1.924231    0.410638
 H    1.304091   -1.322958    0.795346
 H    2.399413    0.324273   -2.118932
 H    4.105588   -1.297287   -2.864218
 H    5.503740   -2.496149   -1.193480
 H    5.171665   -2.048334    1.226630
 H    3.487879   -0.428950    1.975016
 H    1.983935    2.004299   -0.224646
 H    2.786507    1.734072    2.111137
 H    1.437750    0.645047    2.453032
 H    1.091383    3.546347    1.496624
 H    0.974736    3.010311    3.180542
 H   -0.206420    2.446111    1.994199
 H   -3.874343    1.009978   -1.998804
 H   -3.788587   -0.751701   -1.984391
 H   -5.755581    0.264033   -0.736141
 H   -4.633730    0.877366    0.466777
 H   -5.725618   -1.257862    1.140623
 H   -5.069819   -2.064135   -0.273292
 H   -3.387260   -0.875260    1.994945
 H   -3.841660   -2.563996    1.836839
 H   -2.642099   -2.546079   -0.451432
 H   -1.644718   -2.507030    0.989656
