40 
6uvp_ligand_ani.xyz
 C   -2.099428    0.239164    0.280632
 C    3.920439   -1.273061    0.677191
 C   -5.761623    1.092614    0.040605
 C   -3.587709    0.102412    0.095311
 C   -6.238865   -0.174679   -0.238018
 C   -5.373909   -1.256855   -0.338252
 C   -4.389796    1.232105    0.210891
 F   -7.553454   -0.370891   -0.414596
 N   -4.062862   -1.119292   -0.169433
 O   -1.583929    1.327933    0.495234
 N   -1.410316   -0.921441    0.180908
 C   -0.026370   -1.004609    0.520934
 C    0.840447   -1.797199   -0.407647
 C    0.940341   -0.297937   -0.393074
 C    2.141988    0.459448    0.139915
 N    2.962098   -0.350742    1.043255
 C    1.733102    1.734265    0.917632
 O    2.552308    2.804519    0.466783
 C    3.625852    2.256616   -0.278166
 C    2.992098    1.067131   -0.989216
 C    3.912317    0.095810   -1.702267
 S    5.064634   -0.766041   -0.593992
 N    4.006136   -2.376918    1.307769
 H   -6.447915    1.929797    0.118590
 H   -5.766009   -2.248382   -0.557992
 H   -3.928884    2.188845    0.430965
 H   -1.943693   -1.769833    0.042312
 H    0.186314   -1.023276    1.590673
 H    0.348488   -2.254645   -1.262025
 H    1.665920   -2.362861    0.019119
 H    0.426417    0.244429   -1.186551
 H    2.452735   -0.679218    1.854994
 H    0.681207    1.998197    0.755482
 H    1.901512    1.570173    1.992637
 H    3.995719    3.029267   -0.959486
 H    4.445567    1.925536    0.377979
 H    2.288791    1.475663   -1.725220
 H    3.321423   -0.650361   -2.241693
 H    4.542900    0.615042   -2.430101
 H    4.790730   -2.925898    0.963094
