43 
6uvv_ligand_dft.xyz
 O   -1.539491   -0.910091   -1.470967
 C    0.153146    0.851916    0.406638
 O    3.353354    2.583111   -0.223828
 C   -0.474211   -0.490308    0.625096
 C   -6.065713    1.785963    0.014939
 N   -2.778763   -1.196133    0.408565
 C   -1.638942   -0.872142   -0.250886
 C   -4.006852   -1.534469   -0.290370
 C   -4.810188   -0.303442   -0.715950
 C   -5.263106    0.564219    0.457986
 C    1.658676    1.006437    0.271229
 N    2.411401    0.135462    1.158738
 C    2.746591   -1.187457    0.990879
 N    3.009210   -1.893661    2.021579
 S    2.941513   -1.817063   -0.669955
 C    2.047226   -0.603614   -1.701513
 C    2.122322    0.821914   -1.183048
 C    3.480880    1.521965   -1.164477
 C    2.146593    2.442867    0.499795
 C   -0.551872    0.556450    1.706853
 H   -0.399668    1.498937   -0.272377
 H    0.198640   -1.322043    0.822963
 H   -6.970389    1.487175   -0.526483
 H   -6.373126    2.394668    0.871421
 H   -5.472997    2.420579   -0.653519
 H   -2.789333   -1.098502    1.411538
 H   -3.731378   -2.123208   -1.168976
 H   -4.603851   -2.171565    0.371403
 H   -4.194889    0.288611   -1.404326
 H   -5.686507   -0.641819   -1.284457
 H   -5.866439   -0.042483    1.147776
 H   -4.382103    0.896141    1.023598
 H    2.398414    0.379092    2.141430
 H    3.309413   -2.832541    1.768172
 H    0.998267   -0.902717   -1.786048
 H    2.502896   -0.677350   -2.693285
 H    1.436891    1.412741   -1.804192
 H    4.279501    0.840338   -0.847136
 H    3.743038    1.941677   -2.141495
 H    1.391964    3.156434    0.135124
 H    2.334326    2.656811    1.557943
 H    0.038188    0.381058    2.601788
 H   -1.496191    1.065350    1.881568
