44 
6uvy_ligand_dft.xyz
 O    1.153737    0.753667   -1.578607
 C    0.167941    0.168464    0.506156
 O   -4.122985   -2.218754   -0.228635
 C    1.331832    0.419217   -0.414068
 C    7.499728   -0.643710   -0.388946
 N    2.563358    0.244783    0.125809
 C    3.785196    0.519649   -0.609821
 C    4.934002   -0.274312   -0.043304
 C    5.616438    0.203043    1.220039
 C    6.332704    0.271723   -0.102746
 C   -3.156951    1.233961    1.055102
 C    0.126446   -0.891336    1.574202
 C   -4.088920   -1.157964   -1.182222
 C   -2.856686   -2.348158    0.380096
 C   -2.385785    0.777599   -1.641011
 C   -0.646055   -1.074794    0.294028
 C   -2.641828   -0.655526   -1.208953
 C   -2.160699   -0.992356    0.210908
 N   -2.713732   -0.065321    1.189544
 N   -3.639570    1.960744    1.986785
 S   -3.107033    2.034397   -0.531769
 H   -0.400036    1.073485    0.711349
 H    7.347309   -1.627255    0.069841
 H    8.430550   -0.229473    0.013191
 H    7.630963   -0.793232   -1.466004
 H    2.638008    0.105569    1.122509
 H    3.600267    0.267346   -1.657123
 H    4.015887    1.594327   -0.575943
 H    4.833575   -1.352528   -0.156036
 H    5.272959    1.133585    1.665711
 H    5.946310   -0.542787    1.938055
 H    6.425344    1.268210   -0.531454
 H    0.991905   -1.531420    1.721373
 H   -0.418848   -0.647914    2.481174
 H   -4.407427   -1.537124   -2.159531
 H   -4.786883   -0.373191   -0.868027
 H   -2.995370   -2.631920    1.429778
 H   -2.258686   -3.134445   -0.107061
 H   -1.307499    0.939114   -1.733344
 H   -2.837930    0.963441   -2.619933
 H   -0.218513   -1.790790   -0.405891
 H   -2.061265   -1.292856   -1.888110
 H   -2.930165   -0.470661    2.089653
 H   -3.658505    1.466419    2.880364
