44 
6uvy_ligand_xtb.xyz
 O    1.544117   -2.333756   -0.423752
 C    0.099176   -0.808021    0.695382
 O   -4.756559   -1.076666   -0.405009
 C    1.340938   -1.198211   -0.040577
 C    7.202419    0.027423    0.203013
 N    2.188467   -0.172124   -0.279582
 C    3.485235   -0.357693   -0.898892
 C    4.601393   -0.024630    0.062263
 C    4.994717    1.412070    0.267940
 C    5.920163    0.475431   -0.449740
 C   -2.228030    1.633870    1.021139
 C   -0.514217   -1.809801    1.640560
 C   -4.219674   -0.059058   -1.236528
 C   -3.724648   -1.660915    0.369588
 C   -1.837509    0.876898   -1.655046
 C   -1.170316   -1.540944    0.328388
 C   -2.708476   -0.288335   -1.247248
 C   -2.475735   -0.776116    0.193860
 N   -2.557482    0.315925    1.141528
 N   -2.121308    2.464318    1.968085
 S   -2.027884    2.344884   -0.581445
 H    0.021108    0.238726    0.962736
 H    7.070646   -0.072031    1.277756
 H    7.995367    0.750379    0.018831
 H    7.517456   -0.934922   -0.196520
 H    2.009724    0.733131    0.126550
 H    3.532229   -1.406448   -1.203709
 H    3.553097    0.277202   -1.789179
 H    4.624020   -0.668328    0.933369
 H    4.483688    2.169478   -0.308095
 H    5.263518    1.732163    1.263060
 H    6.000503    0.603712   -1.522902
 H   -0.000908   -2.752802    1.748860
 H   -0.958107   -1.436492    2.550839
 H   -4.673556   -0.145783   -2.226070
 H   -4.461171    0.928124   -0.819501
 H   -4.055216   -1.717551    1.410902
 H   -3.525274   -2.679065    0.010350
 H   -0.787831    0.578494   -1.640947
 H   -2.094403    1.224295   -2.654942
 H   -1.043662   -2.313803   -0.421103
 H   -2.483418   -1.126094   -1.917063
 H   -2.708049    0.019339    2.097311
 H   -2.294436    2.094869    2.897842
