23 
7abp_ligand_ani.xyz
 C    0.476834   -1.409034   -0.491674
 C    1.231744   -0.084901   -0.516280
 C    0.693776    0.840701    0.569511
 C   -0.808137    1.014212    0.409785
 C   -1.479718   -0.357714    0.391539
 C   -2.962393   -0.279339    0.098011
 O    0.824560   -2.051519    0.718619
 O    2.626184   -0.259486   -0.362772
 O    1.294940    2.115545    0.443819
 O   -1.088883    1.692158   -0.792547
 O   -0.905259   -1.211026   -0.605923
 H    0.768615   -2.033149   -1.345709
 H    1.080475    0.393603   -1.487132
 H    0.907017    0.405103    1.559590
 H   -1.197988    1.580723    1.274499
 H   -1.318228   -0.812339    1.383540
 H   -3.391721   -1.284441    0.110468
 H   -3.129024    0.169921   -0.884753
 H   -3.472217    0.332408    0.850967
 H    0.312217   -2.869847    0.771923
 H    2.745051   -0.886165    0.366414
 H    2.230172    1.946493    0.251228
 H   -0.459353    2.428763   -0.825957
