32 
7prc_ligand_dft.xyz
 N   -2.553256   -0.389199    0.041652
 C   -1.999881   -1.581796    0.031225
Cl   -3.101875   -2.928048    0.175354
 N   -0.722829   -1.901793   -0.068318
 C    0.071435   -0.819541   -0.200946
 N   -0.330304    0.448265   -0.243063
 C   -1.650359    0.612467   -0.086363
 N    1.398560   -1.073642   -0.293293
 C    2.449530   -0.077972   -0.444564
 C    2.338230    0.962693    0.611224
 N    2.336123    1.787169    1.423373
 C    3.811322   -0.790532   -0.272071
 C    4.045658   -1.422341    1.098754
 C    2.379017    0.604019   -1.821895
 N   -2.124418    1.864847   -0.049796
 C   -1.279890    3.048473   -0.092622
 C   -2.091817    4.283034    0.271393
 H    1.655502   -2.046791   -0.227501
 H    4.593393   -0.053175   -0.478396
 H    3.876267   -1.547767   -1.063918
 H    3.297145   -2.183901    1.339987
 H    5.027308   -1.903636    1.124680
 H    4.017277   -0.665682    1.888311
 H    3.173429    1.349795   -1.919067
 H    2.504168   -0.156006   -2.598946
 H    1.412711    1.093909   -1.950043
 H   -3.122246    1.957171    0.067107
 H   -0.445242    2.910388    0.601961
 H   -0.845918    3.157134   -1.094356
 H   -1.453200    5.169982    0.249040
 H   -2.912773    4.441887   -0.436840
 H   -2.512556    4.192966    1.278252
