48 
966c_ligand_xtb.xyz
 C   -4.922489   -2.023931    1.009511
 C   -6.190653   -2.090278    0.457396
 C   -6.622907   -1.088654   -0.395690
 C   -5.789304   -0.030728   -0.708033
 C   -4.512815    0.025503   -0.161732
 C   -4.080233   -0.969194    0.708149
 O   -3.748522    1.135542   -0.449860
 C   -2.408933    1.012554   -0.631978
 C   -1.810172   -0.142265   -1.135541
 C   -0.441618   -0.190045   -1.311327
 C    0.334479    0.903668   -0.971926
 C   -0.259623    2.079320   -0.547813
 C   -1.627314    2.138944   -0.375441
 S    2.128189    0.857361   -1.148166
 C    2.897288   -0.412668   -0.011589
 O    2.633363    2.137904   -0.701623
 O    2.416338    0.462982   -2.501398
 C    2.892704    0.202931    1.384278
 C    1.517661    0.680990    1.789354
 O    0.553708   -0.042335    1.998474
 N    1.450128    2.005667    2.014025
 O    0.202157    2.532639    2.359133
 C    4.308203   -0.593154   -0.560916
 C    4.995581   -1.799719    0.086739
 O    4.244043   -2.977777   -0.074364
 C    2.966301   -2.869632    0.502075
 C    2.146015   -1.728693   -0.116203
 H   -4.584165   -2.794875    1.685401
 H   -6.841586   -2.917395    0.696009
 H   -7.612809   -1.131505   -0.824026
 H   -6.109915    0.759148   -1.369018
 H   -3.095692   -0.909356    1.148998
 H   -2.420161   -0.994413   -1.395199
 H    0.015096   -1.068839   -1.732603
 H    0.359685    2.941235   -0.359397
 H   -2.105513    3.042674   -0.033781
 H    3.586790    1.043048    1.404583
 H    3.213136   -0.542558    2.115905
 H    2.032425    2.673054    1.525773
 H   -0.360408    1.738265    2.465023
 H    4.898015    0.310166   -0.403068
 H    4.227615   -0.763195   -1.636491
 H    5.168535   -1.607539    1.157589
 H    5.956203   -1.991518   -0.394489
 H    3.053106   -2.723655    1.589842
 H    2.475138   -3.827107    0.319546
 H    1.999458   -1.949555   -1.175156
 H    1.181394   -1.664857    0.388260
