48 
966c_ligand_ani.xyz
 C    7.266470   -6.948257   41.909745
 C    5.989360   -7.421716   42.201571
 C    5.174675   -7.898454   41.177106
 C    5.631981   -7.909391   39.862440
 C    6.912062   -7.440233   39.588329
 C    7.732439   -6.953282   40.598581
 O    7.370104   -7.410331   38.285151
 C    7.936474   -8.548758   37.761732
 C    8.237351   -9.687167   38.506675
 C    8.819766  -10.779534   37.870910
 C    9.113890  -10.718809   36.519092
 C    8.802140   -9.589567   35.767113
 C    8.220647   -8.500143   36.394859
 S    9.786769  -12.145853   35.704746
 C   11.584116  -12.202537   36.129131
 O    9.686290  -11.906309   34.263372
 O    9.171063  -13.327904   36.307823
 C   12.230509  -10.859612   35.716266
 C   12.415673   -9.796066   36.782270
 O   12.982400   -9.954377   37.861465
 N   12.022978   -8.546469   36.425532
 O   12.122964   -7.569337   37.407173
 C   12.103819  -13.344507   35.240434
 C   13.501051  -13.791344   35.654508
 O   13.543351  -14.154741   37.016510
 C   13.179718  -13.081679   37.862649
 C   11.753873  -12.613737   37.595367
 H    7.904844   -6.573040   42.705716
 H    5.627883   -7.416745   43.226452
 H    4.176532   -8.266216   41.401517
 H    5.013896   -8.277171   39.047848
 H    8.724708   -6.592986   40.342019
 H    8.012108   -9.736810   39.565980
 H    9.018778  -11.692503   38.427270
 H    8.997608   -9.586588   34.697130
 H    7.968541   -7.597543   35.846251
 H   11.667166  -10.454136   34.870311
 H   13.244340  -11.060924   35.343571
 H   11.217860   -8.391156   35.835399
 H   12.539677   -8.074007   38.136764
 H   12.078598  -13.037979   34.189271
 H   11.417361  -14.190801   35.356780
 H   14.245220  -13.003118   35.447985
 H   13.796028  -14.680572   35.090398
 H   13.874454  -12.236495   37.749238
 H   13.265826  -13.459040   38.886474
 H   11.067217  -13.445903   37.795405
 H   11.511422  -11.784152   38.267670
