24 
9abp_ligand_ani.xyz
 C    0.418394    1.424566   -0.197797
 C    1.483951    0.388398    0.126554
 C    1.177503   -0.929537   -0.562886
 C   -0.233061   -1.384360   -0.195758
 C   -1.228093   -0.257201   -0.468606
 C   -2.639282   -0.573031    0.003049
 O    0.717547    2.581455    0.524528
 O    2.768105    0.795632   -0.301267
 O    2.070409   -1.937325   -0.128601
 O   -0.285299   -1.710784    1.173500
 O   -0.851766    0.951344    0.195797
 O   -3.516209    0.483454   -0.311287
 H    0.403022    1.632612   -1.286122
 H    1.457515    0.218408    1.212534
 H    1.249967   -0.792109   -1.654614
 H   -0.503306   -2.255566   -0.818142
 H   -1.258629   -0.058169   -1.554727
 H   -2.617751   -0.790366    1.080177
 H   -3.010605   -1.462522   -0.517395
 H   -0.110439    3.068155    0.624643
 H    2.965390    1.621592    0.160432
 H    2.953318   -1.538493   -0.127488
 H    0.506619   -2.243390    1.344030
 H   -3.133867    1.276624    0.087970
