24 
184l_ligand_xtb.xyz
 C   27.343407    6.770581    3.426755
 C   27.380198    7.236165    4.734639
 C   26.650237    6.609972    5.729862
 C   25.870276    5.506984    5.429594
 C   25.827737    5.032330    4.129465
 C   26.559161    5.659907    3.137829
 C   28.104732    7.462461    2.333551
 C   27.183880    8.323426    1.451573
 C   27.966021    8.883810    0.266490
 C   26.560823    9.456174    2.261918
 H   27.987750    8.096843    4.976856
 H   26.690441    6.984457    6.742688
 H   25.299725    5.017504    6.205270
 H   25.223699    4.169295    3.888734
 H   26.525760    5.282319    2.125332
 H   28.591786    6.714352    1.703009
 H   28.879644    8.099698    2.764666
 H   26.378493    7.685199    1.071107
 H   28.782059    9.513969    0.614690
 H   28.385922    8.080459   -0.335108
 H   27.317648    9.483663   -0.368326
 H   25.988283    9.059943    3.097398
 H   27.335355   10.112544    2.653982
 H   25.894564   10.047943    1.638027
