24 
184l_ligand_aiqm1.xyz
 C   27.351356    6.786728    3.444934
 C   27.513567    7.152124    4.784304
 C   26.791003    6.521654    5.796051
 C   25.888853    5.510268    5.483368
 C   25.717063    5.134999    4.154493
 C   26.439780    5.767487    3.147056
 C   28.107272    7.489932    2.347140
 C   27.210362    8.295994    1.399771
 C   28.044778    8.928423    0.289484
 C   26.420802    9.365018    2.149874
 H   28.212455    7.942138    5.037678
 H   26.933898    6.824283    6.825619
 H   25.325409    5.019700    6.265495
 H   25.017963    4.349293    3.897909
 H   26.292525    5.466493    2.115248
 H   28.665776    6.754076    1.758086
 H   28.845076    8.165968    2.793576
 H   26.497661    7.602579    0.939178
 H   28.755198    9.643860    0.713128
 H   28.610572    8.176511   -0.264016
 H   27.409854    9.464910   -0.417097
 H   25.796793    8.927623    2.930904
 H   27.104046   10.077954    2.621029
 H   25.775538    9.921984    1.466788
