75 
1a07_ligand_xtb.xyz
 C    4.301375    2.999749   -1.010349
 O    4.167071    2.891233   -2.219686
 C    4.801890    4.262286   -0.352419
 N    4.055843    1.990417   -0.152616
 C    3.409091    0.768325   -0.571648
 C    1.885894    0.959493   -0.491714
 O    1.380136    1.922964    0.047518
 C    3.867841   -0.417974    0.296094
 C    3.299724   -0.327128    1.685815
 C    2.087245   -0.935769    1.989290
 C    3.957731    0.389216    2.678060
 C    1.541672   -0.818106    3.254982
 C    3.411146    0.508231    3.944221
 C    2.198513   -0.091952    4.234529
 N    1.195506   -0.015298   -1.100018
 C   -0.239444   -0.010369   -1.240005
 C   -0.785044   -1.230310   -0.482264
 O   -0.075377   -2.215893   -0.358891
 C   -0.612720   -0.128980   -2.726314
 C   -0.154418    1.091337   -3.528163
 C    1.358213    1.252121   -3.493994
 O    1.704966    2.486486   -3.189382
 O    2.139180    0.360679   -3.721155
 N   -2.046342   -1.197703   -0.013143
 C   -2.533948   -2.413304    0.626428
 C   -2.884616   -3.496294   -0.396593
 C   -3.998118   -3.075830   -1.351821
 C   -4.342507   -4.184943   -2.343094
 C   -5.446770   -3.762858   -3.304533
 C   -2.909098   -0.036675    0.042067
 C   -2.880119    0.653107    1.413830
 C   -1.527896    1.274948    1.752160
 C   -1.521720    1.906855    3.141979
 C   -0.198263    2.607069    3.420748
 H    3.969157    4.746064    0.154923
 H    5.191886    4.935501   -1.110098
 H    5.576450    4.039669    0.376975
 H    3.979623    2.199967    0.832298
 H    3.684454    0.597378   -1.619184
 H    3.538669   -1.345148   -0.174348
 H    4.959400   -0.416184    0.328265
 H    1.572257   -1.513303    1.235794
 H    4.917776    0.841275    2.466664
 H    0.599406   -1.296932    3.478739
 H    3.934021    1.068810    4.705524
 H    1.770191    0.001158    5.221620
 H    1.674303   -0.806118   -1.504365
 H   -0.577563    0.936082   -0.816098
 H   -0.133597   -1.023483   -3.130410
 H   -1.693740   -0.245095   -2.824351
 H   -0.601206    2.006629   -3.139699
 H   -0.452661    0.966658   -4.571086
 H    2.682536    2.596637   -3.053400
 H   -3.410312   -2.161286    1.224031
 H   -1.748337   -2.795150    1.284889
 H   -1.985694   -3.738326   -0.964193
 H   -3.189301   -4.392498    0.147290
 H   -3.685103   -2.189060   -1.907929
 H   -4.893314   -2.816779   -0.779500
 H   -3.447513   -4.448882   -2.910214
 H   -4.659780   -5.073871   -1.793501
 H   -5.676939   -4.566650   -3.999513
 H   -6.353936   -3.511857   -2.758673
 H   -5.141004   -2.890801   -3.878805
 H   -2.629138    0.675578   -0.732826
 H   -3.929937   -0.370187   -0.167917
 H   -3.647939    1.429801    1.416226
 H   -3.142717   -0.072146    2.187386
 H   -0.745819    0.514297    1.706898
 H   -1.279117    2.046801    1.021727
 H   -2.339038    2.629055    3.214988
 H   -1.694320    1.134617    3.895737
 H    0.624399    1.898729    3.361383
 H   -0.201164    3.056988    4.411166
 H   -0.021875    3.386529    2.683871
