75 
1a07_ligand_dft.xyz
 C    4.525678    1.773156    0.378981
 O    4.215891    2.932973    0.119234
 C    5.593931    1.448448    1.396735
 N    3.949347    0.698142   -0.226597
 C    2.719005    0.849906   -0.965646
 C    1.532301    0.738284    0.007219
 O    1.685969    0.471914    1.189127
 C    2.628494   -0.155083   -2.134639
 C    2.443512   -1.591998   -1.704049
 C    1.162252   -2.141605   -1.589818
 C    3.547077   -2.395669   -1.404199
 C    0.993042   -3.461196   -1.182342
 C    3.378275   -3.715770   -0.994590
 C    2.099249   -4.252209   -0.882401
 N    0.335719    0.979284   -0.573708
 C   -0.919689    1.048867    0.134399
 C   -1.873242    0.058222   -0.550136
 O   -1.853445    0.002600   -1.778766
 C   -1.518602    2.465184    0.045418
 C   -0.642102    3.540036    0.697512
 C    0.697008    3.712734   -0.001253
 O    1.704170    3.719025    0.866778
 O    0.830711    3.819543   -1.202948
 N   -2.731184   -0.689410    0.187833
 C   -3.637799   -1.570731   -0.552288
 C   -4.831131   -0.827272   -1.153577
 C   -5.697047   -0.109723   -0.119308
 C   -6.887317    0.620667   -0.741184
 C   -7.746341    1.342650    0.295144
 C   -2.735165   -0.798906    1.645226
 C   -1.914167   -1.985469    2.164861
 C   -0.410870   -1.820627    1.960119
 C    0.414686   -3.034133    2.382574
 C    1.914318   -2.749985    2.314455
 H    5.119868    1.385200    2.382094
 H    6.325317    2.257179    1.417707
 H    6.095679    0.498696    1.192018
 H    4.060853   -0.192845    0.240694
 H    2.719806    1.863535   -1.379554
 H    1.801362    0.138925   -2.788997
 H    3.546143   -0.047508   -2.721713
 H    0.292434   -1.533431   -1.828248
 H    4.549283   -1.986272   -1.513167
 H   -0.008944   -3.872860   -1.099987
 H    4.247579   -4.326223   -0.768318
 H    1.964453   -5.281624   -0.564346
 H    0.299606    1.243882   -1.547723
 H   -0.694224    0.797283    1.169718
 H   -1.678871    2.708748   -1.010410
 H   -2.502366    2.461526    0.530252
 H   -0.467476    3.317871    1.753483
 H   -1.164622    4.501863    0.640555
 H    2.567688    3.676350    0.393850
 H   -3.984260   -2.341371    0.144348
 H   -3.071870   -2.063325   -1.347455
 H   -4.454412   -0.109602   -1.890326
 H   -5.440773   -1.555830   -1.704275
 H   -5.081511    0.615256    0.431703
 H   -6.064398   -0.833887    0.623611
 H   -6.518511    1.342305   -1.481862
 H   -7.504836   -0.098678   -1.295131
 H   -8.592966    1.854500   -0.173515
 H   -8.147563    0.637645    1.032616
 H   -7.159746    2.092735    0.838227
 H   -2.375511    0.134257    2.086278
 H   -3.780025   -0.898042    1.956711
 H   -2.131645   -2.107461    3.234186
 H   -2.263458   -2.903753    1.672507
 H   -0.196782   -1.617527    0.903306
 H   -0.057388   -0.939704    2.509634
 H    0.139976   -3.335083    3.403187
 H    0.168078   -3.883604    1.730965
 H    2.191994   -2.382515    1.321829
 H    2.501195   -3.650663    2.524326
 H    2.195156   -1.977159    3.037861
