75 
1a07_ligand_aiqm1.xyz
 C    4.399633    3.015411   -0.950829
 O    4.477195    2.732266   -2.139566
 C    4.737729    4.391138   -0.432115
 N    4.016172    2.110567   -0.006884
 C    3.380632    0.884014   -0.428373
 C    1.861880    1.065273   -0.481996
 O    1.304864    2.074293   -0.078456
 C    3.802053   -0.322019    0.431889
 C    3.167428   -0.360181    1.799116
 C    2.020079   -1.129657    2.015738
 C    3.690400    0.378615    2.861460
 C    1.403448   -1.146838    3.263950
 C    3.075746    0.360192    4.113347
 C    1.926013   -0.399636    4.318777
 N    1.221908    0.042742   -1.074865
 C   -0.211415    0.005310   -1.232839
 C   -0.730425   -1.244565   -0.518944
 O   -0.003261   -2.230392   -0.449569
 C   -0.582354   -0.038285   -2.726637
 C   -0.101263    1.204501   -3.483379
 C    1.404519    1.254147   -3.624942
 O    1.895645    2.433416   -3.225719
 O    2.087491    0.346448   -4.033615
 N   -1.984987   -1.242292   -0.020291
 C   -2.443924   -2.483425    0.612350
 C   -2.880491   -3.538840   -0.398930
 C   -4.043831   -3.116953   -1.286428
 C   -4.462912   -4.209128   -2.263790
 C   -5.625053   -3.790081   -3.155926
 C   -2.855016   -0.071165    0.057008
 C   -2.754060    0.673952    1.386890
 C   -1.392751    1.317026    1.626965
 C   -1.275117    2.046173    2.960640
 C    0.124709    2.628274    3.126054
 H    3.884427    5.044443   -0.613505
 H    5.586402    4.781599   -0.988407
 H    4.959036    4.382775    0.635118
 H    3.676905    2.491995    0.863449
 H    3.709038    0.687327   -1.444158
 H    3.540524   -1.228626   -0.115075
 H    4.888729   -0.299363    0.514987
 H    1.607678   -1.711005    1.197382
 H    4.586212    0.974160    2.713309
 H    0.506520   -1.740101    3.404515
 H    3.490920    0.947973    4.922687
 H    1.440533   -0.399769    5.286683
 H    1.714717   -0.813709   -1.260280
 H   -0.598998    0.911909   -0.797880
 H   -0.155832   -0.935868   -3.176668
 H   -1.668464   -0.103275   -2.820986
 H   -0.441015    2.109049   -2.981168
 H   -0.517445    1.199963   -4.494624
 H    2.867265    2.386749   -3.200370
 H   -3.271529   -2.228894    1.277339
 H   -1.625575   -2.872224    1.218125
 H   -2.020611   -3.798702   -1.019865
 H   -3.153090   -4.439656    0.156570
 H   -3.771185   -2.218449   -1.854106
 H   -4.904273   -2.843615   -0.663128
 H   -3.602992   -4.481536   -2.880983
 H   -4.735462   -5.107951   -1.702764
 H   -5.901313   -4.586813   -3.846352
 H   -6.505869   -3.542014   -2.559735
 H   -5.365409   -2.909266   -3.747112
 H   -2.626082    0.601362   -0.769622
 H   -3.879310   -0.415449   -0.092442
 H   -3.532569    1.441011    1.405120
 H   -2.981137   -0.021275    2.202621
 H   -0.604679    0.562652    1.580566
 H   -1.178775    2.030573    0.827882
 H   -2.028310    2.839911    3.014718
 H   -1.496304    1.353164    3.779850
 H    0.872293    1.830011    3.102689
 H    0.232244    3.175568    4.064927
 H    0.352203    3.304661    2.300805
