53 
1a28_ligand_ani-2x.xyz
 C   -3.053730    1.593448    0.372978
 C   -4.572047    1.546896    0.497721
 C   -5.187768    0.596500   -0.511790
 O   -6.287912    0.780749   -0.996579
 C   -4.375169   -0.595726   -0.841598
 C   -3.135392   -0.800420   -0.374907
 C   -2.438847   -2.122696   -0.607610
 C   -1.026455   -1.930081   -1.154433
 C   -0.189890   -1.021157   -0.249184
 C   -0.909737    0.337777   -0.065105
 C   -2.371719    0.207229    0.479553
 C   -0.047095    1.343981    0.725538
 C    1.384615    1.495250    0.177395
 C    2.087882    0.143400    0.049035
 C    1.198989   -0.759893   -0.833348
 C    2.107227   -1.944163   -1.188277
 C    3.529387   -1.327356   -1.280656
 C    3.391378    0.137027   -0.798567
 C    2.352587   -0.469286    1.432203
 C   -2.397732   -0.275402    1.942228
 C    4.645929    0.658528   -0.114313
 O    5.552675   -0.087359    0.193406
 C    4.730238    2.139977    0.188067
 H   -2.790825    2.034799   -0.598471
 H   -2.648799    2.259019    1.144132
 H   -4.867727    1.213352    1.503628
 H   -5.018615    2.533966    0.350771
 H   -4.853075   -1.333019   -1.482497
 H   -2.388636   -2.664078    0.348039
 H   -3.035163   -2.744114   -1.285670
 H   -0.539284   -2.905653   -1.280711
 H   -1.091865   -1.475859   -2.153824
 H   -0.078742   -1.520755    0.726001
 H   -1.024459    0.740521   -1.086603
 H   -0.522364    2.330626    0.721865
 H    0.007404    1.038019    1.779101
 H    1.953506    2.171000    0.826876
 H    1.342867    1.971327   -0.813415
 H    1.035005   -0.197016   -1.770109
 H    1.804472   -2.431911   -2.121907
 H    2.070986   -2.710238   -0.403023
 H    4.241813   -1.856949   -0.644165
 H    3.927522   -1.357088   -2.299474
 H    3.203376    0.790667   -1.664338
 H    2.988152    0.198879    2.023444
 H    2.867286   -1.434168    1.373415
 H    1.427593   -0.623509    1.993441
 H   -3.429950   -0.421576    2.278448
 H   -1.926954    0.452300    2.612301
 H   -1.878975   -1.232173    2.059086
 H    5.765931    2.410554    0.402747
 H    4.352678    2.739471   -0.647622
 H    4.119529    2.376280    1.066477
