53 
1a28_ligand_xtb.xyz
 C   -3.069445    1.579204    0.360521
 C   -4.581246    1.494051    0.523820
 C   -5.182070    0.564587   -0.504775
 O   -6.276195    0.745768   -0.996008
 C   -4.359214   -0.602046   -0.812693
 C   -3.117085   -0.805269   -0.357955
 C   -2.419585   -2.102216   -0.622254
 C   -1.025321   -1.875700   -1.199109
 C   -0.205920   -0.997875   -0.258317
 C   -0.914790    0.353316   -0.059233
 C   -2.369349    0.211750    0.475712
 C   -0.062713    1.291397    0.806556
 C    1.347575    1.497296    0.243755
 C    2.054089    0.154293    0.077672
 C    1.178470   -0.720293   -0.836430
 C    2.085038   -1.902005   -1.172433
 C    3.478463   -1.258691   -1.301776
 C    3.363804    0.182604   -0.758611
 C    2.343020   -0.471687    1.443563
 C   -2.404935   -0.268327    1.937181
 C    4.583265    0.599842    0.036709
 O    5.271795   -0.182717    0.642664
 C    4.890444    2.075692   -0.006273
 H   -2.855236    2.003278   -0.623955
 H   -2.673425    2.262401    1.112938
 H   -4.839533    1.103517    1.511491
 H   -5.038069    2.480734    0.430131
 H   -4.841443   -1.351128   -1.427112
 H   -2.326482   -2.646779    0.322055
 H   -3.015676   -2.714773   -1.300412
 H   -0.530215   -2.836858   -1.342805
 H   -1.110588   -1.390114   -2.174044
 H   -0.105325   -1.518659    0.696911
 H   -0.998393    0.808758   -1.055011
 H   -0.544083    2.267635    0.871498
 H    0.016118    0.892142    1.816449
 H    1.900905    2.149817    0.922836
 H    1.277859    1.998635   -0.725516
 H    1.027490   -0.153609   -1.764410
 H    1.787815   -2.397644   -2.095261
 H    2.063550   -2.639882   -0.370771
 H    4.223170   -1.805193   -0.723452
 H    3.811856   -1.242932   -2.339037
 H    3.227231    0.890689   -1.580970
 H    2.836656    0.257546    2.083706
 H    3.005640   -1.325603    1.349421
 H    1.435449   -0.795965    1.942375
 H   -3.411905   -0.581945    2.203433
 H   -2.108111    0.530718    2.611282
 H   -1.741949   -1.114713    2.090038
 H    5.619184    2.331334    0.758543
 H    5.312300    2.309830   -0.982803
 H    3.987213    2.665692    0.119867
