52 
1a30_ligand_xtb.xyz
 N    1.919644    1.507352   -0.399914
 C    2.937922    0.828671   -1.246389
 C    2.150763   -0.304748   -1.945572
 O    1.695153   -0.146060   -3.047934
 C    4.129825    0.381569   -0.398261
 C    5.200496    1.462447   -0.207636
 C    4.819096    2.597195    0.712077
 O    5.869719    3.231532    1.172867
 O    3.680270    2.912336    0.997122
 N    1.929442   -1.405281   -1.176904
 C    0.606860   -2.002698   -1.255780
 C   -0.292797   -1.047647   -0.433728
 O    0.222755   -0.378333    0.462477
 C    0.600940   -3.435806   -0.731479
 C   -0.671547   -4.161772   -1.116399
 O   -1.627124   -3.635717   -1.629245
 O   -0.610317   -5.446315   -0.819296
 N   -1.554078   -0.963266   -0.825604
 C   -2.481551    0.063658   -0.383761
 C   -1.975309    1.430982   -0.833763
 O   -2.964976    2.293533   -0.961092
 C   -2.680903    0.035273    1.146161
 C   -3.837169    0.896315    1.666255
 C   -3.840144    0.834870    3.193320
 C   -5.185510    0.431683    1.121631
 O   -0.819511    1.710064   -1.047158
 H    1.210010    1.996279   -0.962716
 H    2.419847    2.171906    0.249808
 H    1.351883    0.803560    0.146890
 H    3.265055    1.522138   -2.027211
 H    3.785906    0.048942    0.583342
 H    4.607971   -0.463623   -0.895133
 H    5.469523    1.905329   -1.170375
 H    6.111810    1.016130    0.193027
 H    5.637347    3.979578    1.749560
 H    2.301827   -1.403390   -0.236430
 H    0.297124   -1.984444   -2.304502
 H    0.693091   -3.459343    0.357194
 H    1.445448   -3.988550   -1.147609
 H   -1.421452   -5.918881   -1.071319
 H   -1.883237   -1.666765   -1.479919
 H   -3.438941   -0.118528   -0.874212
 H   -2.658898    3.175472   -1.232005
 H   -2.866769   -1.005713    1.420213
 H   -1.750162    0.344767    1.623974
 H   -3.678904    1.935479    1.363328
 H   -4.019025   -0.182742    3.532275
 H   -4.624684    1.470213    3.594491
 H   -2.888634    1.170798    3.598688
 H   -5.328827   -0.630354    1.307380
 H   -5.271299    0.618912    0.054544
 H   -5.987960    0.972790    1.615323
