52 
1a30_ligand_ani-2x.xyz
 N    1.984006    1.629391   -0.436532
 C    3.002030    0.845582   -1.206466
 C    2.225056   -0.317828   -1.837410
 O    1.718247   -0.190682   -2.936011
 C    4.191779    0.452182   -0.326570
 C    5.377938    1.414720   -0.416004
 C    5.095932    2.813738    0.071306
 O    6.180280    3.597802   -0.003133
 O    4.035200    3.232961    0.489464
 N    2.011385   -1.447405   -1.060131
 C    0.645468   -1.960146   -1.089518
 C   -0.254880   -0.957102   -0.332983
 O    0.172697   -0.322968    0.632158
 C    0.578620   -3.367374   -0.503788
 C   -0.720725   -4.068588   -0.817216
 O   -1.626849   -3.617180   -1.487149
 O   -0.774279   -5.295899   -0.279422
 N   -1.492992   -0.774937   -0.841752
 C   -2.393935    0.216858   -0.289443
 C   -1.736021    1.595735   -0.394812
 O   -2.421066    2.544618    0.260894
 C   -2.883103   -0.187470    1.115531
 C   -4.051452    0.596141    1.729882
 C   -4.510888   -0.129268    2.997089
 C   -5.219692    0.765668    0.759800
 O   -0.749861    1.848681   -1.045536
 H    1.233468    1.957487   -1.066244
 H    2.471058    2.425394    0.018562
 H    1.521565    1.028803    0.273376
 H    3.337136    1.451270   -2.052233
 H    3.852538    0.384487    0.713564
 H    4.547938   -0.540240   -0.622040
 H    5.735059    1.494879   -1.450130
 H    6.226342    1.035399    0.164514
 H    5.914710    4.472506    0.328001
 H    2.393737   -1.395118   -0.121110
 H    0.340903   -1.991303   -2.139099
 H    0.725952   -3.363723    0.583225
 H    1.392290   -3.963017   -0.932000
 H   -1.630465   -5.675820   -0.539848
 H   -1.871922   -1.525284   -1.405035
 H   -3.251398    0.261582   -0.971892
 H   -1.941127    3.377358    0.116027
 H   -3.185567   -1.240493    1.030200
 H   -2.023786   -0.173473    1.793995
 H   -3.695226    1.589588    2.016314
 H   -4.909667   -1.122685    2.753091
 H   -5.300518    0.430285    3.511112
 H   -3.680278   -0.264558    3.699347
 H   -5.538894   -0.202645    0.350400
 H   -4.965515    1.424354   -0.076774
 H   -6.081226    1.207538    1.273029
