52 
1a30_ligand_aiqm1.xyz
 N    1.912466    1.725817   -0.616177
 C    2.952674    0.831849   -1.238606
 C    2.118197   -0.270569   -1.910274
 O    1.530760    0.016461   -2.930250
 C    3.994640    0.381744   -0.215683
 C    5.184982    1.327756   -0.035186
 C    4.878426    2.662944    0.585903
 O    5.968044    3.261814    1.038208
 O    3.772528    3.167348    0.649986
 N    1.983708   -1.468779   -1.261934
 C    0.623823   -2.013556   -1.300675
 C   -0.251550   -1.010813   -0.507341
 O    0.285933   -0.301137    0.351609
 C    0.602158   -3.426695   -0.734951
 C   -0.676743   -4.154232   -1.067415
 O   -1.585029   -3.685036   -1.713400
 O   -0.686036   -5.385194   -0.560060
 N   -1.521767   -0.917044   -0.874216
 C   -2.448396    0.100379   -0.377689
 C   -1.964289    1.486411   -0.801309
 O   -2.928187    2.398405   -0.668679
 C   -2.674359   -0.023187    1.140794
 C   -3.813476    0.804746    1.739898
 C   -3.892250    0.515077    3.237691
 C   -5.157980    0.511501    1.077535
 O   -0.861093    1.758217   -1.213387
 H    1.315060    2.136580   -1.336203
 H    2.410162    2.457998   -0.073738
 H    1.279347    1.151628   -0.027504
 H    3.424176    1.396157   -2.038432
 H    3.514992    0.180258    0.742869
 H    4.409494   -0.560108   -0.569353
 H    5.658403    1.535498   -0.998791
 H    5.943806    0.846546    0.574429
 H    5.710152    4.123834    1.392758
 H    2.362794   -1.489383   -0.327604
 H    0.297438   -2.029920   -2.335447
 H    0.737041   -3.428074    0.349542
 H    1.426503   -3.995943   -1.164608
 H   -1.517996   -5.799406   -0.826613
 H   -1.864318   -1.618939   -1.515393
 H   -3.392232   -0.058766   -0.890293
 H   -2.565320    3.247512   -0.956417
 H   -2.891332   -1.079977    1.326615
 H   -1.739057    0.200866    1.657452
 H   -3.588222    1.865986    1.613522
 H   -4.166259   -0.528550    3.409604
 H   -4.646482    1.141219    3.709003
 H   -2.937232    0.700714    3.731298
 H   -5.396562   -0.553907    1.145791
 H   -5.181381    0.806324    0.027257
 H   -5.950158    1.057424    1.586461
