43 
1a4g_ligand_xtb.xyz
 C    0.942644   -2.224791    2.458467
 O    2.216837   -1.874373    2.658850
 O    0.449518   -3.202495    2.961246
 C    0.218477   -1.294789    1.555757
 C   -1.006990   -1.607891    1.118423
 C   -1.778977   -0.719071    0.196419
 C   -1.106902    0.669490    0.138652
 N   -1.544464    1.456754    1.273075
 C   -1.453143    2.813367    1.269965
 O   -1.084911    3.433745    0.298188
 C   -1.878555    3.449650    2.574448
 C    0.432986    0.572757    0.147504
 O    0.895091   -0.152362    1.272515
 C    1.032609    0.028432   -1.164187
 O    0.933355   -1.375396   -1.228122
 C    2.509046    0.427657   -1.341806
 O    2.931868   -0.203097   -2.532708
 C    3.397451   -0.029710   -0.179450
 O    4.738068    0.174687   -0.590678
 N   -1.902586   -1.367333   -1.086632
 C   -2.788686   -0.917508   -2.053939
 N   -2.506711   -1.410450   -3.311656
 N   -3.781421   -0.142623   -1.916140
 H    2.639632   -2.511674    3.256639
 H   -1.435354   -2.554948    1.398788
 H   -2.797338   -0.585076    0.591553
 H   -1.413325    1.208088   -0.764932
 H   -1.690640    0.970261    2.143583
 H   -2.883247    3.128883    2.838755
 H   -1.860099    4.529951    2.467826
 H   -1.196012    3.156775    3.369564
 H    0.819286    1.590366    0.279499
 H    0.474853    0.477651   -2.001841
 H    1.565619   -1.641682   -1.914363
 H    2.584730    1.519252   -1.447389
 H    3.896724   -0.146871   -2.542431
 H    3.216101   -1.092729    0.024546
 H    3.165928    0.546282    0.720258
 H    5.322305   -0.035872    0.142970
 H   -1.021009   -1.728812   -1.430079
 H   -2.088369   -2.326551   -3.347436
 H   -3.265819   -1.271403   -3.960307
 H   -3.898566    0.262857   -0.996194
