80 
1a4h_ligand_aiqm1.xyz
 O    0.921682   -4.503303    0.091662
 O    3.583812   -1.838040    0.600244
 O    1.442292    0.404298   -1.225997
 O    2.007071   -1.087976   -2.819413
 O   -0.177731    3.174884    1.418015
 O   -0.869576    2.919238   -2.062462
 O   -4.113060   -0.566854   -1.617284
 O   -2.742066   -2.813154   -2.638427
 O   -1.816290   -1.319805    2.386944
 N   -0.374424   -3.266546    1.486379
 N    0.071111    0.124385   -2.948747
 C    0.773308   -3.961916    1.169441
 C    1.790892   -4.021561    2.262319
 C    2.151936   -2.937665    2.968624
 C    1.667018   -1.553031    2.798523
 C    1.748978   -0.776698    1.708595
 C    2.384696   -1.124504    0.380787
 C    2.649787    0.112706   -0.512815
 C    3.124157    1.338448    0.231733
 C    2.550286    2.551793    0.247011
 C    1.350594    3.086562   -0.511507
 C    0.042228    2.590968    0.127337
 C   -1.226268    2.906894   -0.674090
 C   -2.306106    1.838924   -0.481903
 C   -2.752357    1.566977    0.954415
 C   -3.675598    0.334864    1.004178
 C   -3.050458   -0.904761    0.409085
 C   -3.287719   -1.318252   -0.858751
 C   -2.545697   -2.489008   -1.479789
 C   -1.545693   -3.164513   -0.657460
 C   -1.301958   -2.762763    0.606646
 C   -2.065577   -1.620513    1.230784
 C    2.427464   -5.367580    2.464282
 C    3.894656   -2.723066   -0.466741
 C    1.247315   -0.253415   -2.386677
 C    4.391370    1.088329    1.014461
 C    1.405387    4.615981   -0.556147
 C   -1.762900    3.666427   -2.862209
 C   -3.466733    2.780296    1.549863
 C   -4.950489   -1.182216   -2.602607
 H    0.545350    2.896376    1.983972
 H   -0.412159   -2.803563    2.381317
 H   -0.071662   -0.184632   -3.894266
 H   -0.322332    1.013287   -2.670078
 H    2.894910   -3.078748    3.751773
 H    1.184742   -1.129471    3.675683
 H    1.302155    0.212500    1.758384
 H    1.678140   -1.738321   -0.194359
 H    3.421245   -0.184656   -1.228309
 H    3.049264    3.299127    0.859429
 H    1.386542    2.703804   -1.534513
 H    0.100713    1.497921    0.228856
 H   -1.590499    3.898581   -0.381127
 H   -1.905450    0.924998   -0.930556
 H   -3.189792    2.106304   -1.074976
 H   -1.873159    1.350617    1.566900
 H   -4.595667    0.570625    0.466471
 H   -3.937321    0.143985    2.047532
 H   -0.995126   -3.960671   -1.137537
 H    1.697794   -6.114037    2.787175
 H    2.849698   -5.713984    1.522089
 H    3.218838   -5.305821    3.210540
 H    4.725926   -3.335768   -0.122348
 H    3.044432   -3.361292   -0.712898
 H    4.196622   -2.183335   -1.366303
 H    5.161299    0.667114    0.364461
 H    4.231220    0.369289    1.817665
 H    4.769751    2.017885    1.442111
 H    2.332046    4.949232   -1.027888
 H    1.366478    5.028456    0.454452
 H    0.567538    5.022117   -1.123449
 H   -1.404362    3.605196   -3.888572
 H   -1.785000    4.716330   -2.549513
 H   -2.777630    3.262940   -2.816730
 H   -2.796026    3.636681    1.599919
 H   -4.337423    3.049721    0.942470
 H   -3.814244    2.563922    2.562174
 H   -4.406472   -1.346564   -3.526270
 H   -5.766559   -0.480998   -2.756452
 H   -5.339360   -2.129779   -2.235529
