54 
1a4k_ligand_xtb.xyz
 C    8.280373    1.577018   -1.185572
 C    6.817053    1.824876   -0.878422
 O    6.294762    2.910063   -0.967128
 N    6.173267    0.680633   -0.493976
 C    4.838536    0.500580   -0.125829
 C    3.908202    1.536657   -0.117822
 C    2.604876    1.292937    0.267825
 C    2.210707    0.014255    0.638944
 C    3.130131   -1.026754    0.623414
 C    4.434506   -0.780507    0.248486
 N    0.870746   -0.230571    1.036266
 C    0.534038   -1.001111    2.138109
 C   -0.977754   -1.057332    2.223373
 C   -1.471763   -0.164417    1.091270
 C   -0.227195    0.270950    0.352460
 O    1.320035   -1.530695    2.877804
 O   -0.169704    0.913000   -0.663466
 C   -1.493699   -2.489155    2.017359
 C   -1.066578   -2.994979    0.638451
 C   -1.702626   -2.125471   -0.459695
 C   -3.580233   -1.483385    1.056925
 C   -3.020033   -2.471265    2.093330
 C   -2.441266   -0.947026    0.178345
 N   -2.968383   -0.094440   -0.868646
 C   -3.613269    1.064008   -0.632041
 O   -3.938412    1.499351    0.445789
 O   -3.867054    1.704900   -1.805401
 C   -4.686653    2.843628   -1.673582
 C   -6.085673    2.452459   -1.219927
 O   -6.512718    1.334778   -1.189659
 O   -6.796025    3.527810   -0.873793
 H    8.790640    1.195789   -0.303355
 H    8.378899    0.851709   -1.990671
 H    8.742901    2.511485   -1.488757
 H    6.732331   -0.160850   -0.455122
 H    4.212600    2.528171   -0.406684
 H    1.889253    2.099063    0.273870
 H    2.830938   -2.020411    0.915827
 H    5.148873   -1.591903    0.243725
 H   -1.285736   -0.706384    3.211312
 H   -2.000640    0.724356    1.446746
 H   -1.076773   -3.135797    2.793878
 H    0.022029   -2.976693    0.563420
 H   -1.379810   -4.033838    0.527891
 H   -0.940609   -1.749926   -1.145468
 H   -2.417910   -2.705627   -1.044532
 H   -4.316602   -1.964650    0.413242
 H   -4.070436   -0.639495    1.539804
 H   -3.336050   -2.188786    3.097800
 H   -3.393718   -3.477993    1.902862
 H   -2.642053   -0.234903   -1.811537
 H   -4.735702    3.308240   -2.660176
 H   -4.270098    3.551427   -0.948014
 H   -7.681120    3.266222   -0.571952
