56 
1a5h_ligand_aiqm1.xyz
 C    0.843099   -0.194008    2.114544
 C    1.562626   -0.750952    0.906394
 C    2.455013    0.020456    0.147431
 C    3.076010   -0.503639   -0.978857
 C    1.319715   -2.065252    0.491054
 C    1.933429   -2.589580   -0.640708
 C    2.810217   -1.808869   -1.394280
 C    3.454324   -2.343162   -2.627726
 N    2.741025   -3.350038   -3.256317
 N    4.594183   -1.881366   -2.992722
 C   -3.258633    1.407022    1.275101
 C   -2.706861    0.352180    0.347124
 C   -2.596458   -0.973945    0.780851
 C   -2.071842   -1.957873   -0.049694
 C   -2.268602    0.657429   -0.945891
 C   -1.722269   -0.321927   -1.768555
 C   -1.620258   -1.642541   -1.332659
 C   -1.021593   -2.683743   -2.208108
 N   -0.119493   -2.460015   -3.093183
 N   -1.439074   -3.972254   -1.976652
 C    0.234176    1.203403    1.875075
 C    1.138057    2.342202    2.392691
 C    0.879761    3.685009    1.711963
 C   -0.545815    4.230127    1.824604
 C   -1.603130    3.372233    1.111649
 C   -2.167023    2.252401    1.979482
 C   -1.120073    1.315743    2.562437
 O   -1.392463    0.676905    3.558449
 H    1.514699   -0.149894    2.976813
 H    0.048625   -0.887247    2.392737
 H    2.664675    1.044518    0.433906
 H    3.774643    0.092521   -1.549990
 H    0.622923   -2.678583    1.052521
 H    1.717288   -3.602265   -0.951932
 H    1.729413   -3.246735   -3.236256
 H    3.093611   -3.589437   -4.167602
 H    4.895598   -2.320547   -3.861380
 H   -3.925619    2.077108    0.728638
 H   -3.851756    0.916028    2.048204
 H   -2.915942   -1.232070    1.783532
 H   -1.970301   -2.972117    0.316757
 H   -2.351746    1.672234   -1.318418
 H   -1.389677   -0.045950   -2.762282
 H    0.123755   -1.474084   -3.076106
 H   -2.373667   -4.095107   -1.629483
 H   -1.146567   -4.636154   -2.672138
 H    0.091644    1.343946    0.807478
 H    2.179749    2.066337    2.228040
 H    1.018264    2.430655    3.478710
 H    1.127542    3.585341    0.648263
 H    1.572989    4.421520    2.122561
 H   -0.556010    5.232905    1.392922
 H   -0.819880    4.347412    2.879498
 H   -1.174767    2.966578    0.192875
 H   -2.437952    4.010550    0.805743
 H   -2.649282    2.706489    2.849590
