71 
1a7c_ligand_xtb.xyz
 N    1.342559   -1.814133    1.096199
 C    2.061592   -1.229633    2.065833
 O    2.935145   -0.398856    1.826131
 C    1.753266   -1.684922    3.466471
 C    1.619649   -1.650410   -0.320815
 C    0.631675   -2.505294   -1.144495
 O    0.327650   -3.715603   -0.495190
 C    1.172635   -2.722968   -2.553235
 C    1.442203   -0.176602   -0.715307
 O    0.356557    0.283557   -1.007247
 N    2.565686    0.562605   -0.680788
 C    2.485380    2.015701   -0.772553
 C    1.246420    2.459525    0.024473
 O    0.390850    3.205971   -0.428837
 C    2.426030    2.496141   -2.233991
 C    3.480581    1.780495   -3.074735
 C    2.636938    4.006279   -2.298262
 N    1.221502    1.940204    1.263099
 C    0.114329    1.994307    2.210916
 C   -1.109425    1.178181    1.750420
 O   -1.603497    0.334566    2.498025
 C   -0.307756    3.431533    2.523559
 N   -1.554198    1.510886    0.549143
 C   -2.691024    1.027346   -0.212607
 C   -2.688188   -0.494574   -0.444274
 O   -2.596774   -0.991796   -1.555230
 C   -2.649325    1.730450   -1.584626
 O   -2.578940    3.127822   -1.489188
 N   -2.866537   -1.210588    0.669802
 C   -2.731106   -2.657367    0.729086
 C   -2.320361   -3.063792    2.145942
 O   -1.115281   -2.455442    2.543768
 N   -4.337345   -3.143455   -0.978926
 C   -4.050579   -3.341071    0.317020
 O   -4.731050   -3.988278    1.080500
 H    0.550927   -2.405001    1.344001
 H    1.814599   -0.839980    4.147470
 H    2.518697   -2.401471    3.761939
 H    0.780102   -2.156887    3.532729
 H    2.658475   -1.957261   -0.513092
 H   -0.314668   -1.956749   -1.203706
 H    1.093549   -4.300313   -0.541194
 H    0.461932   -3.309128   -3.129524
 H    1.313965   -1.765993   -3.046926
 H    2.124936   -3.252806   -2.523651
 H    3.381231    0.162066   -0.239499
 H    3.377716    2.428014   -0.290530
 H    1.432430    2.255683   -2.622038
 H    3.311549    0.706745   -3.084611
 H    4.476833    1.973095   -2.681025
 H    3.441526    2.141848   -4.098937
 H    1.882805    4.523408   -1.713419
 H    3.621631    4.269870   -1.916196
 H    2.565502    4.346929   -3.327816
 H    1.968138    1.297323    1.509555
 H    0.472086    1.520203    3.130375
 H    0.534608    3.978182    2.940937
 H   -0.642705    3.941881    1.625599
 H   -1.116186    3.422439    3.249990
 H   -1.009067    2.215674    0.056352
 H   -3.615650    1.288136    0.322190
 H   -1.802710    1.316791   -2.141791
 H   -3.570027    1.495048   -2.123031
 H   -1.663682    3.398165   -1.334722
 H   -2.863087   -0.712394    1.557346
 H   -1.957850   -2.969340    0.016436
 H   -3.132210   -2.822918    2.842037
 H   -2.152117   -4.141717    2.171102
 H   -1.265034   -1.495952    2.631984
 H   -3.758009   -2.529545   -1.540853
 H   -5.199987   -3.504231   -1.352159
