52 
1a86_ligand_xtb.xyz
 N   -4.358241    1.816297   -0.026888
 O   -5.034985    2.954096    0.426607
 C   -4.057870    0.882662    0.891398
 O   -4.491056    0.937057    2.031601
 C   -3.206012   -0.259214    0.361714
 C   -3.962967   -1.065379   -0.710531
 C   -5.355366   -1.531615   -0.269286
 C   -5.293140   -2.389765    0.991679
 C   -6.005576   -2.309011   -1.412088
 C   -1.934957    0.281579   -0.278090
 O   -1.936747    1.217422   -1.062888
 N   -0.814977   -0.372512    0.055981
 C    0.484722   -0.047936   -0.480446
 C    1.416749   -1.208200   -0.098137
 O    1.141540   -1.934298    0.839044
 C    0.999821    1.263885    0.143522
 C    2.298798    1.755641   -0.434980
 O    2.857606    2.684129    0.336266
 O    2.796535    1.386346   -1.468910
 N    2.498578   -1.333125   -0.875992
 C    3.654192   -2.114440   -0.468255
 C    4.710873   -1.175042    0.054597
 C    5.851150   -0.890859   -0.682209
 C    6.767886    0.038941   -0.221477
 C    4.495515   -0.509764    1.256182
 C    5.406723    0.424107    1.713433
 C    6.545038    0.700863    0.973462
 H   -3.735873    1.994615   -0.811404
 H   -5.234610    2.740517    1.361539
 H   -2.960900   -0.903159    1.208769
 H   -3.358682   -1.938194   -0.972560
 H   -4.063008   -0.445317   -1.603963
 H   -5.967431   -0.649173   -0.057284
 H   -4.588964   -3.209841    0.863702
 H   -4.993815   -1.794700    1.849922
 H   -6.272848   -2.810936    1.203963
 H   -7.015839   -2.606196   -1.142372
 H   -5.432330   -3.206738   -1.634826
 H   -6.056810   -1.700921   -2.312322
 H   -0.797294   -1.123244    0.738228
 H    0.419546    0.074691   -1.567084
 H    1.109080    1.160722    1.224685
 H    0.249081    2.038419   -0.043470
 H    3.685760    3.008048   -0.053432
 H    2.678981   -0.605518   -1.557943
 H    4.022376   -2.681917   -1.326122
 H    3.317172   -2.803071    0.310296
 H    6.023630   -1.399181   -1.619803
 H    7.654438    0.251535   -0.800347
 H    3.607320   -0.729731    1.830841
 H    5.229014    0.937704    2.646754
 H    7.257283    1.430624    1.329350
