29 
1a8i_ligand_ani-2x.xyz
 C   -0.973802   -0.610487    0.419343
 C   -1.188501    0.897743    0.275134
 O   -2.469703    1.080394   -0.270966
 C   -0.119138    1.524772   -0.595166
 O   -0.320056    2.921120   -0.573625
 C    1.262181    1.157858   -0.078134
 O    2.186358    1.729968   -0.975083
 C    1.373160   -0.373006   -0.009523
 C    2.675666   -0.842896    0.624766
 O    3.757783   -0.351670   -0.161951
 O    0.337340   -0.898831    0.836119
 N   -1.921678   -1.195007    1.340956
 C   -2.950362   -1.857922    0.707616
 O   -3.984812   -2.265028    1.175468
 N   -2.520515   -2.006736   -0.617898
 C   -1.361260   -1.343477   -0.891465
 O   -0.779079   -1.307227   -1.952458
 H   -1.116486    1.335976    1.284662
 H   -2.564956    2.028786   -0.442094
 H   -0.218062    1.124676   -1.616846
 H    0.401468    3.307232   -1.090725
 H    1.388326    1.575163    0.938531
 H    3.020149    1.239384   -0.873304
 H    1.274616   -0.779225   -1.024462
 H    2.722628   -0.449724    1.650033
 H    2.686351   -1.939144    0.666744
 H    4.577479   -0.446586    0.335330
 H   -2.105109   -0.774997    2.238273
 H   -3.070086   -2.481011   -1.319277
