94 
1a9m_ligand_aiqm1.xyz
 C   -3.401182   -2.063834    2.149664
 C   -3.467561   -1.522050    0.744226
 C   -3.109613    0.445882   -0.673708
 C   -3.423146    1.925028   -0.469568
 C   -4.637913    2.212714    0.413601
 C   -4.865255    3.723616    0.507606
 C   -6.070323    4.065486    1.378367
 C   -7.325193    3.376150    0.849592
 C   -7.113402    1.866291    0.773196
 C   -5.904040    1.516251   -0.092627
 C   -1.785186    0.201323   -1.407245
 C   -1.662031    0.918411   -2.749458
 C   -0.381663    0.523990   -3.497372
 C   -0.148959    1.312137   -4.791317
 C    1.086689    0.771222   -5.512164
 C   -1.355185    1.267929   -5.724100
 C    0.798657    0.744679   -2.561105
 C    2.304806   -0.291995   -0.956017
 C    1.835169    0.331598    0.370857
 C    0.877813   -0.553242    1.174124
 C    0.297356    0.184775    2.364849
 C    2.869552   -1.697354   -0.788304
 C    4.506529   -3.109303    0.286170
 C    3.732574   -3.805760    1.412006
 C    6.026442   -3.082543    0.539311
 C    6.542119   -2.003593    1.488721
 C    6.206264   -2.194051    2.979146
 C    5.171174   -0.033170    3.450172
 N   -3.078615   -0.239152    0.613793
 N    1.263336   -0.361651   -1.943248
 N    1.181949    0.586659    3.299332
 N    3.981495   -1.793167    0.007320
 N    3.780346   -5.161754    1.376835
 N    6.200467   -0.925097    3.700866
 N    5.522922    1.294086    3.635942
 N    3.993258   -0.336360    3.045196
 O   -3.877132   -2.188531   -0.206434
 O   -1.573687   -1.195807   -1.624165
 O    1.287172    1.853098   -2.370445
 O   -0.901456    0.429755    2.474223
 O    2.398153   -2.666693   -1.356423
 O    3.165879   -3.197232    2.304710
 H   -2.507143   -1.711018    2.664303
 H   -4.271833   -1.710725    2.703234
 H   -3.415725   -3.150206    2.119313
 H   -3.901037   -0.022662   -1.263557
 H   -3.598669    2.381004   -1.449890
 H   -2.539720    2.413486   -0.039270
 H   -4.438629    1.837274    1.425735
 H   -3.964310    4.212789    0.888771
 H   -5.034177    4.114774   -0.503870
 H   -6.212491    5.148138    1.417721
 H   -5.881701    3.731371    2.404057
 H   -8.186900    3.610308    1.479703
 H   -7.548898    3.758714   -0.152196
 H   -8.008208    1.374473    0.385056
 H   -6.952605    1.477679    1.784188
 H   -6.094253    1.836100   -1.125603
 H   -5.759919    0.433361   -0.114884
 H   -0.981894    0.550612   -0.746898
 H   -1.656613    2.001279   -2.593891
 H   -2.537075    0.673460   -3.361397
 H   -0.445329   -0.539938   -3.739484
 H    0.042843    2.350271   -4.504884
 H    1.279641    1.338323   -6.425336
 H    1.975898    0.828747   -4.881206
 H    0.934426   -0.275694   -5.791509
 H   -2.231167    1.763451   -5.301587
 H   -1.122228    1.762898   -6.669110
 H   -1.628502    0.232439   -5.948855
 H    3.103188    0.347127   -1.341320
 H    2.709611    0.579562    0.973275
 H    1.346440    1.271861    0.111542
 H    1.406215   -1.438849    1.539510
 H    0.054833   -0.898804    0.546339
 H    4.338575   -3.701140   -0.611890
 H    6.341393   -4.074486    0.880032
 H    6.499011   -2.923143   -0.432015
 H    7.629215   -1.948385    1.386953
 H    6.169611   -1.026992    1.174136
 H    5.235101   -2.657952    3.113678
 H    6.936190   -2.850175    3.454082
 H   -2.535435    0.176540    1.363881
 H    0.772586   -1.238746   -2.034506
 H    2.160006    0.320658    3.259754
 H    0.811175    1.029617    4.121266
 H    4.088683   -1.092097    0.727667
 H    3.161471   -5.645151    2.007051
 H    3.993524   -5.619809    0.508608
 H    7.107944   -0.485511    3.741011
 H    6.181186    1.448477    4.381047
 H    4.727316    1.909468    3.687420
 H    3.865658   -1.339463    2.945453
 H   -2.365757   -1.691856   -1.372653
