94 
1a9m_ligand_ani-2x.xyz
 C   -3.020154   -1.951830    2.368066
 C   -3.169724   -1.507856    0.932032
 C   -3.023608    0.406516   -0.608846
 C   -3.439081    1.873001   -0.501605
 C   -4.676421    2.157567    0.361670
 C   -4.966865    3.663822    0.383483
 C   -6.194250    4.004859    1.231636
 C   -7.424200    3.230000    0.752796
 C   -7.147778    1.725087    0.736296
 C   -5.917481    1.389275   -0.110297
 C   -1.673780    0.214950   -1.340559
 C   -1.604705    0.902693   -2.702469
 C   -0.352916    0.538566   -3.532683
 C   -0.242709    1.353408   -4.835045
 C    0.957883    0.900005   -5.672705
 C   -1.520656    1.272031   -5.673989
 C    0.909599    0.736946   -2.685838
 C    2.360128   -0.253083   -0.986091
 C    1.916203    0.436580    0.323497
 C    0.956040   -0.396242    1.194261
 C    0.365959    0.395178    2.357281
 C    2.859727   -1.673337   -0.729994
 C    4.527025   -3.128239    0.207582
 C    3.577584   -3.741844    1.252228
 C    6.013657   -3.193518    0.606490
 C    6.526850   -2.144166    1.596952
 C    6.092523   -2.326646    3.060550
 C    5.178711   -0.101183    3.519083
 N   -2.947319   -0.187310    0.718186
 N    1.299296   -0.342427   -1.955792
 N    1.264532    0.868704    3.251344
 N    4.093010   -1.785811   -0.133455
 N    3.351319   -5.071057    1.109031
 N    6.111223   -1.082175    3.824260
 N    5.542857    1.161447    3.964807
 N    4.083833   -0.248838    2.861980
 O   -3.491046   -2.275749    0.023741
 O   -1.392780   -1.171719   -1.492811
 O    1.515788    1.801195   -2.646652
 O   -0.837463    0.603668    2.484693
 O    2.201256   -2.655701   -1.035133
 O    3.082934   -3.102372    2.173238
 H   -2.077631   -1.586192    2.785703
 H   -3.836196   -1.546916    2.977576
 H   -3.054367   -3.041632    2.405602
 H   -3.772970   -0.166253   -1.168549
 H   -3.628232    2.262629   -1.511425
 H   -2.588925    2.449829   -0.100463
 H   -4.465286    1.844308    1.396449
 H   -4.085347    4.206447    0.749722
 H   -5.137003    4.001924   -0.650670
 H   -6.386056    5.084469    1.209840
 H   -5.990607    3.744208    2.280749
 H   -8.292323    3.455559    1.384192
 H   -7.682682    3.558766   -0.264517
 H   -8.023082    1.176266    0.368437
 H   -6.972214    1.380104    1.765955
 H   -6.115987    1.647101   -1.162259
 H   -5.731393    0.307934   -0.081617
 H   -0.898417    0.649870   -0.689434
 H   -1.631785    1.991226   -2.560186
 H   -2.500565    0.619312   -3.272121
 H   -0.421659   -0.528915   -3.787283
 H   -0.077313    2.398651   -4.542138
 H    1.004450    1.468166   -6.608388
 H    1.904068    1.048941   -5.144192
 H    0.872509   -0.162920   -5.934246
 H   -2.377033    1.743195   -5.180606
 H   -1.380069    1.779722   -6.634193
 H   -1.780464    0.227005   -5.888864
 H    3.165278    0.352587   -1.418548
 H    2.812406    0.675862    0.908266
 H    1.457032    1.391335    0.034156
 H    1.496686   -1.259894    1.605096
 H    0.119903   -0.794018    0.602502
 H    4.419877   -3.719497   -0.706807
 H    6.222753   -4.205369    0.978999
 H    6.588245   -3.083389   -0.320113
 H    7.623758   -2.145561    1.554176
 H    6.230409   -1.146292    1.252771
 H    5.089206   -2.746840    3.131686
 H    6.756431   -3.038609    3.563245
 H   -2.396916    0.308131    1.416145
 H    0.687870   -1.149839   -1.873992
 H    2.248030    0.602687    3.217683
 H    0.902827    1.332518    4.071511
 H    4.329369   -1.051773    0.525917
 H    2.628826   -5.478772    1.684739
 H    3.551011   -5.527058    0.232809
 H    7.041447   -0.697656    3.947990
 H    5.935069    1.179061    4.897432
 H    4.774461    1.813086    3.867997
 H    3.873141   -1.226544    2.666754
 H   -2.175440   -1.691158   -1.229608
