23 
1abf_ligand_aiqm1.xyz
 C    1.003458    0.641482    1.124248
 C    1.148894   -0.806999    0.675802
 C    0.578277   -0.984727   -0.720859
 C   -0.859231   -0.493843   -0.755563
 C   -0.912064    0.949873   -0.264996
 C   -2.311783    1.491838   -0.134303
 O    1.885312    1.404893    0.307818
 O    2.492360   -1.247235    0.728009
 O    0.577099   -2.357436   -1.092066
 O   -1.679591   -1.304448    0.066197
 O   -0.314941    1.083273    1.035235
 H    1.283976    0.754132    2.171508
 H    0.588755   -1.428675    1.374249
 H    1.178664   -0.405262   -1.432004
 H   -1.214414   -0.527101   -1.792336
 H   -0.337411    1.549674   -0.983512
 H   -2.275869    2.529458    0.196480
 H   -2.866026    0.903660    0.594893
 H   -2.830273    1.444851   -1.092783
 H    1.887822    2.303623    0.639137
 H    3.034438   -0.565265    0.318955
 H    1.413964   -2.722513   -0.792235
 H   -1.471518   -2.213353   -0.171876
