23 
1abf_ligand_ani-2x.xyz
 C    1.023273    0.634655    1.128358
 C    1.149797   -0.818274    0.685174
 C    0.579655   -0.984375   -0.719174
 C   -0.853377   -0.478034   -0.762701
 C   -0.901721    0.960619   -0.251036
 C   -2.314407    1.489781   -0.128713
 O    1.889906    1.387989    0.303831
 O    2.485834   -1.278502    0.728159
 O    0.566821   -2.356716   -1.064387
 O   -1.674994   -1.291829    0.041509
 O   -0.302803    1.078768    1.045377
 H    1.317587    0.742371    2.179852
 H    0.578092   -1.450262    1.369289
 H    1.191797   -0.408746   -1.432768
 H   -1.205421   -0.486426   -1.809934
 H   -0.330661    1.579263   -0.963774
 H   -2.289036    2.522231    0.229157
 H   -2.885652    0.879524    0.576086
 H   -2.820604    1.464455   -1.100386
 H    1.782745    2.318905    0.542473
 H    3.027030   -0.586662    0.319635
 H    1.408621   -2.715629   -0.743934
 H   -1.422582   -2.203206   -0.172094
