29 
1acj_ligand_xtb.xyz
 C    6.348887   71.228442   68.991842
 C    6.690551   70.933240   67.702861
 C    5.715478   70.492236   66.783662
 C    4.366193   70.362697   67.209021
 C    4.051697   70.672311   68.546750
 C    5.019869   71.094267   69.416807
 N    6.107855   70.218081   65.528520
 C    5.226392   69.781504   64.661115
 C    3.865015   69.597802   64.961881
 C    3.417810   69.926083   66.237637
 C    5.770010   69.479322   63.292469
 C    4.680329   69.444813   62.230307
 C    3.570058   68.513552   62.697588
 C    2.885839   69.097950   63.929449
 N    2.093690   69.777365   66.576489
 H    7.098402   71.564151   69.693809
 H    7.705733   71.021372   67.349015
 H    3.037816   70.564002   68.907448
 H    4.762470   71.324854   70.440501
 H    6.268612   68.506152   63.336875
 H    6.535659   70.220094   63.057671
 H    5.095991   69.100301   61.281570
 H    4.276792   70.448487   62.077705
 H    3.999914   67.540293   62.944284
 H    2.830831   68.363777   61.907642
 H    2.243808   69.932065   63.617044
 H    2.243644   68.334391   64.379005
 H    1.783323   70.245973   67.410270
 H    1.427929   69.775920   65.823065
