33 
1add_ligand_ani-2x.xyz
 O   -2.459637    0.923529    1.988485
 C   -3.432931    1.283176    1.028619
 C   -3.096302    0.594634   -0.281351
 O   -1.845069    1.099754   -0.759792
 C   -2.934413   -0.924560   -0.179594
 O   -3.351408   -1.491194   -1.402502
 C   -1.426344   -1.093002   -0.013097
 O   -1.014296   -2.338489   -0.506784
 C   -0.884564    0.071402   -0.847988
 N    0.382610    0.576899   -0.358456
 C    0.720431    1.875388   -0.039362
 N    1.974339    2.032340    0.276435
 C    2.519186    0.761854    0.162414
 C    3.833373    0.298246    0.355156
 N    4.817541    1.144953    0.787775
 C    4.027841   -1.071765    0.127481
 C    2.961597   -1.884018   -0.248058
 N    1.692447   -1.468096   -0.429576
 C    1.543081   -0.162914   -0.230854
 H   -2.543572    1.508025    2.750624
 H   -3.451726    2.368394    0.854478
 H   -4.441424    0.968382    1.342335
 H   -3.866041    0.830524   -1.024876
 H   -3.492435   -1.356380    0.666064
 H   -2.780490   -2.261787   -1.547999
 H   -1.139007   -0.947063    1.035042
 H   -0.035910   -2.318823   -0.554980
 H   -0.770816   -0.245176   -1.895000
 H   -0.032966    2.652831   -0.064559
 H    5.774112    0.893501    0.590234
 H    4.599974    2.128952    0.704680
 H    5.014758   -1.508155    0.255250
 H    3.138163   -2.941663   -0.408446
