33 
1add_ligand_aiqm1.xyz
 O   -2.560967    0.815019    2.061738
 C   -3.463457    1.251018    1.049962
 C   -3.085588    0.590003   -0.255950
 O   -1.835531    1.136554   -0.724988
 C   -2.897831   -0.923007   -0.166298
 O   -3.377836   -1.492747   -1.370218
 C   -1.387031   -1.077493   -0.047745
 O   -0.992735   -2.324647   -0.563574
 C   -0.883827    0.111346   -0.872858
 N    0.409682    0.619380   -0.412030
 C    0.763650    1.918552   -0.139678
 N    2.027338    2.058573    0.179673
 C    2.537729    0.774520    0.110751
 C    3.834513    0.303014    0.346672
 N    4.826360    1.147318    0.768837
 C    4.003620   -1.077636    0.169458
 C    2.923084   -1.887896   -0.189571
 N    1.670667   -1.462928   -0.410026
 C    1.546405   -0.135472   -0.254255
 H   -2.677094    1.360764    2.838806
 H   -3.415572    2.335272    0.921673
 H   -4.491820    0.973495    1.304894
 H   -3.850479    0.831563   -0.996952
 H   -3.416391   -1.351778    0.694922
 H   -2.840812   -2.274435   -1.529339
 H   -1.080661   -0.940252    0.992817
 H   -0.019530   -2.317303   -0.577795
 H   -0.790518   -0.166664   -1.929051
 H    0.033695    2.708250   -0.185875
 H    5.777878    0.849851    0.645752
 H    4.651217    2.131045    0.647802
 H    4.974732   -1.530192    0.326615
 H    3.087210   -2.953387   -0.302368
