45 
1af6_ligand_ani-2x.xyz
 C   -1.316249   -0.833553   -0.211515
 C   -1.771358   -0.675198   -1.665118
 C   -2.043885    0.790660   -1.964520
 C   -3.013501    1.373494   -0.945893
 C   -2.440182    1.137029    0.446380
 C   -3.292442    1.620087    1.602301
 O   -0.811466   -1.142651   -2.586031
 O   -2.620029    0.943633   -3.244664
 O   -3.175043    2.759562   -1.142934
 O   -2.267761   -0.275930    0.649840
 O   -2.545854    1.644376    2.795201
 C    0.193662   -1.181511    2.222657
 C    0.841541   -0.780189    0.887529
 C    1.670788   -1.903346    0.241147
 C    2.871436   -1.149320   -0.315094
 C    3.075132   -0.065564    0.739385
 C    3.762380    1.168218    0.190089
 O   -0.315351   -0.046372    2.875994
 O   -0.059458   -0.217340   -0.043541
 O    0.936125   -2.597263   -0.747968
 O    3.971044   -2.003209   -0.484400
 O    1.758187    0.261744    1.179786
 O    5.000790    0.722522   -0.351450
 H   -1.244561   -1.899559    0.029680
 H   -2.715926   -1.231579   -1.790879
 H   -1.092095    1.343047   -1.897652
 H   -3.977674    0.841326   -1.029988
 H   -1.464846    1.640635    0.509890
 H   -4.177160    0.965290    1.681613
 H   -3.639412    2.641084    1.406892
 H   -0.186202   -1.707328   -2.100062
 H   -2.006024    0.531459   -3.869140
 H   -3.429803    2.874926   -2.069087
 H   -2.018464    0.826053    2.839136
 H   -0.627316   -1.886681    2.066721
 H    0.950837   -1.678874    2.848026
 H    2.025580   -2.590609    1.022916
 H    2.562370   -0.676359   -1.263761
 H    3.662091   -0.474421    1.578765
 H    3.122494    1.616373   -0.583173
 H    3.912768    1.908051    0.987636
 H    0.286765    0.687928    2.674185
 H    1.510162   -3.297845   -1.090860
 H    4.731467   -1.425519   -0.657356
 H    5.406245    1.442320   -0.848183
