27 
1aht_ligand_xtb.xyz
 C   -2.991613    0.551959   -0.128260
 O   -2.333232    1.164879   -1.118112
 O   -3.504155    1.142894    0.782432
 C   -2.957436   -0.963967   -0.266902
 O   -2.703077   -1.391078   -1.571595
 C   -1.910853   -1.494271    0.752540
 C   -0.567752   -0.876032    0.494821
 C    0.273721   -1.398073   -0.481433
 C    1.480661   -0.789339   -0.769399
 C    1.881096    0.348229   -0.076294
 C    1.043546    0.867199    0.907375
 C   -0.169289    0.265284    1.182243
 C    3.168719    1.012346   -0.409438
 N    3.651659    1.159986   -1.576309
 N    3.834056    1.562922    0.649752
 H   -2.348045    2.126454   -0.992657
 H   -3.942503   -1.359043    0.002428
 H   -1.932636   -0.914446   -1.906992
 H   -2.261140   -1.251300    1.755748
 H   -1.863376   -2.578065    0.638231
 H   -0.018072   -2.290968   -1.015691
 H    2.128667   -1.207612   -1.527000
 H    1.336297    1.759615    1.440876
 H   -0.817768    0.683908    1.938788
 H    3.064634    0.801716   -2.322128
 H    3.701640    1.159183    1.561126
 H    4.756249    1.907421    0.436650
