20 
1ai5_ligand_dft.xyz
 C    2.816182   -0.564435   -0.248660
 C    2.148769    0.388885    0.745392
 C    0.726058    0.729368    0.387547
 C   -0.250860   -0.265211    0.385063
 C   -1.553121    0.073129    0.055254
 N   -2.579054   -0.980180    0.067121
 O   -3.710659   -0.670242   -0.271633
 O   -2.240140   -2.098447    0.419824
 C   -1.928415    1.367761   -0.281148
 C   -0.950782    2.352405   -0.279279
 C    0.364373    2.033421    0.052407
 O    4.136519   -0.757988   -0.038620
 O    2.251608   -1.133471   -1.139127
 H    2.749789    1.303562    0.820315
 H    2.190256   -0.091206    1.732970
 H   -0.011142   -1.294131    0.623869
 H   -2.959110    1.581606   -0.534145
 H   -1.212739    3.372941   -0.537726
 H    1.120400    2.814266    0.047223
 H    4.444078   -0.236536    0.714637
