20 
1ai5_ligand_xtb.xyz
 C   13.680336   37.329929   36.989390
 C   13.950294   36.348263   35.846503
 C   12.677326   35.959418   35.153481
 C   12.447462   36.330806   33.839510
 C   11.248445   35.987447   33.228266
 N   11.028451   36.369173   31.855162
 O    9.966168   36.074961   31.351731
 O   11.922563   36.958378   31.285099
 C   10.262507   35.288947   33.912329
 C   10.494285   34.926962   35.226294
 C   11.691722   35.255162   35.840533
 O   14.770893   37.970371   37.438359
 O   12.608437   37.516297   37.478509
 H   14.420472   35.466106   36.293500
 H   14.650487   36.793289   35.135846
 H   13.181110   36.883121   33.270935
 H    9.340334   35.044295   33.408585
 H    9.739040   34.387144   35.775544
 H   11.862098   34.972948   36.867604
 H   15.580070   37.737883   36.964219
