19 
1ai6_ligand_xtb.xyz
 C   12.953013   37.848143   35.500223
 O   13.607099   38.016474   36.486589
 O   11.931883   38.656257   35.189202
 C   13.236078   36.733151   34.490620
 C   11.991338   36.234757   33.817329
 C   11.243085   35.207487   34.385778
 C   10.072457   34.774861   33.800216
 C    9.616736   35.369246   32.625086
 C   10.353100   36.398185   32.051415
 C   11.527508   36.825602   32.646476
 O    8.460599   34.913092   32.081655
 H   11.476069   38.362937   34.382776
 H   13.751938   35.933094   35.021693
 H   13.929750   37.152896   33.756234
 H   11.588081   34.741930   35.296626
 H    9.492383   33.976367   34.233474
 H   10.010500   36.862675   31.136327
 H   12.097849   37.615192   32.175393
 H    8.257436   35.398353   31.272787
