13 
1ai7_ligand_ani-2x.xyz
 C    9.971537   35.413204   32.606663
 C   10.579063   36.464748   31.921147
 C   11.667250   37.119789   32.490751
 C   12.152928   36.735376   33.735177
 C   11.538425   35.683025   34.411780
 C   10.452599   35.020313   33.856630
 O    8.904318   34.728566   32.107937
 H   10.203424   36.770838   30.945440
 H   12.136818   37.938685   31.951554
 H   13.002372   37.248591   34.176814
 H   11.910390   35.374099   35.385708
 H    9.963836   34.198279   34.372125
 H    8.669840   35.093788   31.245674
