80 
1aj6_ligand_xtb.xyz
 C   -9.478302   -0.282340   -1.838529
 O   -8.079406   -0.159619   -1.748279
 N  -10.079857    1.548805    2.205524
 C   -8.802105    1.384007    1.794298
 O   -7.895559    2.130933    2.039965
 O   -8.686464    0.233331    1.080237
 C   -7.478521   -0.882473   -0.698373
 C   -7.371828   -0.068019    0.597269
 C   -6.641108   -0.889786    1.666720
 O   -7.386049   -2.019802    2.038273
 C   -5.288016   -1.372527    1.125939
 O   -5.379204   -1.993227   -0.110768
 C   -6.066087   -1.317092   -1.168026
 C   -6.214620   -2.370367   -2.267860
 C   -5.274442   -0.122649   -1.705291
 O   -4.443824   -0.247787    1.148202
 C   -3.100772   -0.407123    0.940558
 C   -2.329332    0.745858    1.110444
 C   -2.959425    2.052356    1.478825
 C   -0.950782    0.652283    0.916394
 C   -0.342031   -0.558977    0.563326
 C   -1.146280   -1.688498    0.393183
 C   -2.506514   -1.616786    0.576650
 O   -0.221136    1.785118    1.089637
 C    1.118203    1.790946    0.938226
 O    1.725868    2.832227    1.114297
 C    1.792973    0.556880    0.569890
 C    1.092129   -0.609042    0.379697
 O    1.606496   -1.779746    0.044019
 N    3.176649    0.784296    0.460108
 C    4.217702   -0.019533    0.176715
 O    4.100019   -1.218189   -0.098653
 C    5.546337    0.629885    0.191971
 C    6.581242   -0.028084   -0.471745
 C    7.863203    0.483505   -0.520699
 C    8.126750    1.689071    0.143214
 O    9.353833    2.257850    0.156924
 C    7.100929    2.347361    0.818454
 C    5.823757    1.830792    0.844075
 C    8.961592   -0.235617   -1.267675
 C   10.058871   -0.660118   -0.330743
 C   11.352149   -0.357009   -0.382512
 C   12.008713    0.498077   -1.428073
 C   12.305207   -0.870767    0.656824
 H   -9.776727   -1.332722   -1.940141
 H   -9.983596    0.148013   -0.969261
 H   -9.768950    0.265005   -2.733623
 H  -10.324546    2.401210    2.676202
 H  -10.804389    0.931750    1.886516
 H   -8.061656   -1.789179   -0.476481
 H   -6.841546    0.873447    0.425671
 H   -6.451014   -0.246512    2.540377
 H   -8.304451   -1.740179    2.150798
 H   -4.909388   -2.155321    1.801737
 H   -5.233766   -2.647015   -2.641994
 H   -6.812185   -1.966166   -3.078735
 H   -6.693732   -3.258535   -1.865018
 H   -5.133746    0.639690   -0.946238
 H   -4.296945   -0.461256   -2.040655
 H   -5.818044    0.308350   -2.540078
 H   -3.873499    1.882608    2.040210
 H   -3.212229    2.611115    0.578331
 H   -2.266390    2.651460    2.062541
 H   -0.674444   -2.615608    0.111496
 H   -3.116574   -2.490265    0.417775
 H    2.614103   -1.702450   -0.052600
 H    3.356771    1.771254    0.643675
 H    6.352845   -0.961887   -0.964381
 H    9.997154    1.653581   -0.239808
 H    7.336599    3.270195    1.324122
 H    5.065191    2.360866    1.400394
 H    8.534923   -1.127350   -1.733356
 H    9.339853    0.404752   -2.068825
 H    9.707741   -1.289235    0.477574
 H   12.424597    1.396792   -0.970482
 H   11.331082    0.794857   -2.223443
 H   12.836437   -0.048508   -1.878342
 H   13.066602   -1.497384    0.193332
 H   12.814230   -0.039409    1.143773
 H   11.788535   -1.454567    1.413506
