20 
1ajn_ligand_dft.xyz
 C    3.318318    0.001421   -0.300419
 C    2.423164    0.014537    0.947005
 C    0.940321    0.018371    0.674749
 C    0.219834   -1.180227    0.625320
 C   -1.138580   -1.186892    0.329561
 C   -1.767170    0.024662    0.084441
 N   -3.204121    0.029310   -0.226083
 O   -3.776908   -1.047929   -0.260970
 O   -3.733286    1.109861   -0.430012
 C   -1.084252    1.233737    0.124302
 C    0.271638    1.220893    0.417936
 O    4.455333    0.383967   -0.272365
 O    2.783702   -0.503891   -1.425943
 H    2.724373    0.887791    1.530045
 H    2.702074   -0.868206    1.534409
 H    0.724067   -2.120483    0.832491
 H   -1.709120   -2.106662    0.293318
 H   -1.615186    2.156818   -0.072866
 H    0.821087    2.157266    0.449643
 H    1.851188   -0.726770   -1.287500
