20 
1ajn_ligand_xtb.xyz
 C   13.709050   37.640040   36.757140
 C   14.055750   36.396870   35.927241
 C   12.975930   36.129389   34.923679
 C   13.091022   36.584951   33.611013
 C   12.072901   36.375445   32.701453
 C   10.925493   35.709565   33.111545
 N    9.860269   35.486110   32.164935
 O   10.007463   35.922209   31.043473
 O    8.886220   34.877244   32.549820
 C   10.790359   35.252172   34.417548
 C   11.814389   35.466268   35.316534
 O   13.663519   37.642161   37.948620
 O   13.463087   38.741512   36.038462
 H   14.167045   35.561668   36.618297
 H   15.013402   36.579489   35.433652
 H   13.993953   37.083890   33.286502
 H   12.151137   36.714882   31.680078
 H    9.886188   34.738272   34.705233
 H   11.720805   35.120258   36.334307
 H   13.503618   38.588005   35.083469
