20 
1ajn_ligand_aiqm1.xyz
 C   13.815508   37.644137   36.798472
 C   14.075385   36.422790   35.921210
 C   12.993759   36.137483   34.912748
 C   13.143360   36.529747   33.578147
 C   12.122088   36.320516   32.652890
 C   10.953284   35.717695   33.088156
 N    9.867954   35.496093   32.119337
 O   10.056015   35.868104   30.972560
 O    8.853539   34.955637   32.527712
 C   10.769256   35.313320   34.402211
 C   11.797499   35.528711   35.312408
 O   14.189648   37.721780   37.932566
 O   13.170225   38.669544   36.204603
 H   14.222357   35.582329   36.593937
 H   15.024163   36.610752   35.411067
 H   14.069054   36.990972   33.252863
 H   12.221034   36.616951   31.619310
 H    9.839158   34.847782   34.692360
 H   11.672511   35.228638   36.344279
 H   12.895801   38.407419   35.316165
