20 
1ajp_ligand_xtb.xyz
 C   13.177430   37.389621   36.325823
 C   13.298874   36.159342   35.424850
 C   12.161692   36.116488   34.441933
 C   12.328511   36.574768   33.147871
 C   11.281667   36.540985   32.231170
 O   11.516124   37.003455   30.975834
 C   10.048920   36.035615   32.619787
 C    9.868320   35.579338   33.914031
 C   10.909249   35.623710   34.823826
 O   10.745726   35.189952   36.126020
 O   13.952887   38.300342   36.303060
 O   12.128861   37.374446   37.150559
 H   13.279271   35.266614   36.054998
 H   14.250323   36.216656   34.898497
 H   13.280076   36.968133   32.829387
 H   10.714685   36.936807   30.443163
 H    9.227867   35.998626   31.917576
 H    8.906114   35.188715   34.216358
 H    9.856259   34.834821   36.234630
 H   11.585542   36.573665   37.022127
