41 
1al8_ligand_xtb.xyz
 N   24.337418   71.660847   -5.154334
 C   25.000458   71.292812   -7.304109
 O   25.806009   70.829461   -8.263430
 C   25.346955   71.073682   -5.862590
 O   26.321283   70.495063   -5.448531
 C   23.375331   72.227440   -6.006275
 O   22.389152   72.793759   -5.621956
 C   23.838284   71.967286   -7.387155
 C   23.098397   72.446305   -8.586755
 C   23.296032   73.956773   -8.778559
 C   22.472770   74.517572   -9.936812
 C   22.919359   74.005738  -11.304888
 C   22.165532   74.703863  -12.435531
 C   22.487249   74.133948  -13.817437
 C   23.930655   74.387937  -14.248432
 C   24.187705   74.050810  -15.718130
 C   23.974105   72.581768  -16.087343
 C   24.906916   71.632510  -15.344428
 H   24.274302   71.682388   -4.147588
 H   26.554012   70.377945   -7.837937
 H   22.033464   72.248095   -8.448695
 H   23.458858   71.904238   -9.460267
 H   24.355527   74.159137   -8.950563
 H   23.000020   74.461537   -7.856861
 H   22.562593   75.606570   -9.925354
 H   21.419510   74.273590   -9.781948
 H   22.741953   72.931132  -11.375092
 H   23.991120   74.178763  -11.415050
 H   22.398502   75.771357  -12.421155
 H   21.092353   74.599698  -12.255759
 H   21.817603   74.593854  -14.548809
 H   22.285773   73.061318  -13.811417
 H   24.612269   73.813631  -13.621151
 H   24.159449   75.446352  -14.097958
 H   25.217685   74.324931  -15.961248
 H   23.529468   74.663555  -16.339711
 H   24.144605   72.474374  -17.161614
 H   22.937830   72.300108  -15.893881
 H   25.943889   71.930657  -15.484817
 H   24.691534   71.625607  -14.279165
 H   24.788672   70.617990  -15.718864
