55 
1ao8_ligand_dft.xyz
 N   -1.969472    3.095102    1.259140
 C   -0.671161    3.392398    0.846222
 N    0.016506    4.201684    1.545661
 N   -0.273928    2.756226   -0.325896
 C   -0.989308    1.818858   -1.031514
 N   -0.502701    1.284019   -2.088073
 C   -2.287338    1.447089   -0.437701
 N   -2.942450    0.424199   -0.953889
 C   -4.033725   -0.006824   -0.316096
 C   -4.501549    0.695341    0.801179
 N   -3.870660    1.747015    1.322322
 C   -2.729144    2.092538    0.726484
 C   -4.516017   -1.380242   -0.718696
 N   -3.781816   -2.421499    0.027899
 C   -4.319124   -2.654262    1.356243
 C    0.404882   -1.933540   -0.374340
 C   -0.393155   -2.272481   -1.471731
 C   -1.756838   -2.452853   -1.322252
 C   -2.369235   -2.309762   -0.067566
 C   -1.561144   -2.021795    1.036069
 C   -0.190268   -1.833549    0.881069
 C    1.878649   -1.769675   -0.580446
 O    2.491650   -2.391006   -1.435540
 N    2.493088   -0.870264    0.250306
 C    3.923549   -0.856301    0.429347
 C    4.227052   -1.046262    1.906477
 O    3.409212   -0.997780    2.794432
 O    5.536268   -1.242460    2.125976
 C    4.604598    0.426759   -0.091888
 C    4.196415    0.739279   -1.531382
 C    2.809650    1.342873   -1.599310
 O    2.431675    2.191269   -0.796823
 O    2.088103    0.887266   -2.594150
 H   -2.264802    3.525617    2.124645
 H    0.937863    4.350615    1.140145
 H    0.723845    2.797689   -0.570822
 H   -1.142761    0.571491   -2.436911
 H   -5.419594    0.391520    1.299267
 H   -5.582841   -1.519100   -0.521932
 H   -4.349222   -1.512762   -1.789947
 H   -3.796808   -3.497408    1.815345
 H   -4.242905   -1.789806    2.038626
 H   -5.376443   -2.920431    1.264728
 H    0.080220   -2.396233   -2.440429
 H   -2.367961   -2.706665   -2.182887
 H   -1.993996   -1.918302    2.024823
 H    0.414045   -1.632291    1.762471
 H    1.947412   -0.386770    0.947991
 H    4.318744   -1.711743   -0.127722
 H    5.648988   -1.322765    3.086922
 H    5.687314    0.287807   -0.026234
 H    4.338386    1.278805    0.543116
 H    4.889937    1.477340   -1.951514
 H    4.228715   -0.153329   -2.161259
 H    1.125900    1.187521   -2.492888
