23 
1apb_ligand_ani-2x.xyz
 C   -1.076453   -1.162858   -0.208178
 C   -1.456941    0.311530   -0.214042
 C   -0.328959    1.149388   -0.788475
 C    0.960382    0.856047   -0.026481
 C    1.227228   -0.652412    0.000429
 C    2.442588   -1.007578    0.836514
 O   -2.110362   -1.867042    0.414088
 O   -2.606167    0.559008   -0.998513
 O   -0.605638    2.528524   -0.635514
 O    0.843732    1.322113    1.297384
 O    0.111887   -1.370026    0.525427
 H   -0.926072   -1.520581   -1.247064
 H   -1.609832    0.617687    0.831074
 H   -0.195617    0.896271   -1.853456
 H    1.801913    1.351353   -0.542434
 H    1.389886   -0.980004   -1.043459
 H    2.302400   -0.679776    1.870020
 H    2.605177   -2.088609    0.821447
 H    3.334955   -0.513346    0.436264
 H   -1.702187   -2.652964    0.799280
 H   -3.324878    0.044138   -0.607852
 H   -1.531671    2.651736   -0.892344
 H    0.454730    2.207100    1.226186
