23 
1apb_ligand_dft.xyz
 C   -0.672530   -1.316280   -0.229362
 C   -1.241314    0.034437    0.179261
 C   -0.478224    1.136802   -0.535494
 C    1.018442    1.007404   -0.249588
 C    1.488874   -0.423676   -0.543671
 C    2.923306   -0.664924   -0.113417
 O   -1.378507   -2.288964    0.467797
 O   -2.602791    0.178504   -0.169324
 O   -0.891757    2.411680   -0.085559
 O    1.280373    1.326471    1.095544
 O    0.684407   -1.390423    0.121581
 H   -0.781233   -1.452973   -1.323766
 H   -1.087663    0.136351    1.262086
 H   -0.653869    1.034908   -1.618387
 H    1.566283    1.687187   -0.923216
 H    1.394650   -0.572853   -1.634496
 H    3.018963   -0.497698    0.961295
 H    3.215010   -1.692804   -0.344599
 H    3.597184    0.020228   -0.636760
 H   -1.015469   -3.150630    0.227695
 H   -3.085424   -0.526589    0.280966
 H   -1.856666    2.379105   -0.026043
 H    0.723100    2.095050    1.288531
