45 
1ax1_ligand_dft.xyz
 C   -4.046816   -0.086514   -0.361805
 C   -3.150744    1.148640   -0.317081
 C   -1.781842    0.818248   -0.887495
 C   -1.218239   -0.389353   -0.145029
 C   -2.215415   -1.553191   -0.145275
 C   -1.749242   -2.695009    0.748420
 O   -5.280444    0.158846    0.219777
 O   -3.805931    2.164219   -1.042998
 O   -0.984597    1.978283   -0.764224
 O   -0.010920   -0.827403   -0.767995
 O   -3.456465   -1.120974    0.384733
 O   -1.549827   -2.265570    2.075533
 C    1.123804   -0.616475   -0.000331
 C    2.317049   -1.265078   -0.682333
 C    3.574114   -0.960610    0.126915
 C    3.745131    0.550351    0.327243
 C    2.451766    1.140902    0.884845
 C    2.404769    2.660427    0.954966
 O    2.202833   -2.670665   -0.758118
 O    4.725719   -1.424186   -0.545131
 O    4.052248    1.170021   -0.898427
 O    1.346097    0.772149    0.066666
 O    1.202211    3.100646    1.539302
 H   -4.160100   -0.418493   -1.412056
 H   -3.034330    1.431454    0.740655
 H   -1.896293    0.552131   -1.950758
 H   -1.019192   -0.109525    0.895244
 H   -2.342537   -1.921514   -1.177122
 H   -0.788500   -3.073316    0.388766
 H   -2.487517   -3.507135    0.692940
 H   -5.528299    1.057002   -0.042662
 H   -3.201873    2.917511   -1.083849
 H   -0.062501    1.712482   -0.916668
 H   -2.389690   -1.883623    2.366079
 H    0.983342   -1.023509    1.016866
 H    2.418457   -0.811163   -1.677286
 H    3.475494   -1.447633    1.110253
 H    4.549045    0.714711    1.062929
 H    2.290994    0.738226    1.897517
 H    3.220117    3.021963    1.587823
 H    2.551409    3.066090   -0.054993
 H    1.464175   -2.868571   -1.347068
 H    4.522968   -2.316545   -0.858413
 H    4.709003    0.597018   -1.321319
 H    0.472427    2.775484    0.991933
