24 
1axz_ligand_aiqm1.xyz
 C    1.155561   -0.926634   -0.487828
 C    1.543866    0.469966   -0.028155
 C    0.655002    0.881516    1.126852
 C   -0.803806    0.797600    0.699571
 C   -1.099809   -0.586258    0.121869
 C   -2.483405   -0.696728   -0.476015
 O    1.993637   -1.255082   -1.553727
 O    2.881932    0.527707    0.431918
 O    0.905415    2.219915    1.517687
 O   -1.093408    1.779478   -0.276163
 O   -0.185022   -0.932429   -0.924566
 O   -2.782709   -2.034840   -0.834007
 H    1.273530   -1.659510    0.330303
 H    1.382134    1.149858   -0.869519
 H    0.829138    0.202255    1.969409
 H   -1.431394    0.949833    1.585517
 H   -0.993877   -1.314511    0.941115
 H   -3.217850   -0.406739    0.274011
 H   -2.563829   -0.019317   -1.329302
 H    1.620426   -2.022659   -1.992068
 H    3.450003    0.241993   -0.286809
 H    1.857891    2.316131    1.593465
 H   -0.680662    2.591195    0.034605
 H   -2.212762   -2.272742   -1.568560
