24 
1axz_ligand_xtb.xyz
 C    1.166766   -0.933942   -0.470618
 C    1.558445    0.481238   -0.023612
 C    0.654050    0.904420    1.135421
 C   -0.814456    0.793405    0.695875
 C   -1.088942   -0.611785    0.141230
 C   -2.485954   -0.700581   -0.484332
 O    1.969408   -1.289527   -1.547344
 O    2.894051    0.537072    0.410024
 O    0.893710    2.240370    1.503049
 O   -1.102561    1.755265   -0.281447
 O   -0.171296   -0.979765   -0.875733
 O   -2.782176   -2.001793   -0.909237
 H    1.325178   -1.636930    0.378747
 H    1.394981    1.156595   -0.877881
 H    0.840759    0.233657    1.988875
 H   -1.456563    0.949311    1.578192
 H   -1.002706   -1.333786    0.970691
 H   -3.236220   -0.434783    0.261415
 H   -2.530096    0.013655   -1.314316
 H    1.472252   -1.902993   -2.100051
 H    3.435873    0.104174   -0.260569
 H    1.849768    2.345014    1.584645
 H   -0.696014    2.580571    0.019955
 H   -2.088255   -2.268864   -1.523379
