35 
1b4d_ligand_ani-2x.xyz
 N    1.014053   -1.586942   -1.727361
 C   -0.538929   -0.870568    0.789197
 O   -0.031884   -2.178857    0.864820
 C   -2.658466    0.332830    0.254983
 C   -1.832731    1.234838   -0.642495
 C   -2.315006    2.672908   -0.743208
 C    0.243240    0.118148   -0.115073
 C   -1.978345   -1.020655    0.324744
 O   -2.693719   -1.824510    1.234198
 O   -3.953728    0.222029   -0.286824
 O   -0.489274    1.323435   -0.138118
 N    1.506381    0.521363    0.491386
 O   -1.546582    3.358743   -1.703826
 C    2.569133   -0.286919    0.699911
 O    2.552042   -1.516271    0.624769
 C    4.831163   -0.411388    1.226972
 O    3.668519    0.399165    1.018190
 C    0.467219   -0.360961   -1.579477
 O    0.175678    0.362307   -2.517532
 H    1.552709   -1.999350   -0.976827
 H    1.344773   -1.801780   -2.657107
 H   -0.536819   -0.405508    1.785842
 H    0.898302   -2.120523    1.132894
 H   -2.686031    0.764025    1.270083
 H   -1.799487    0.819580   -1.657275
 H   -3.359888    2.702272   -1.065015
 H   -2.242034    3.149013    0.249252
 H   -1.980375   -1.474251   -0.683221
 H   -2.156723   -2.621842    1.358914
 H   -4.437317   -0.390301    0.285000
 H    1.658177    1.522429    0.520895
 H   -0.622755    3.171948   -1.480722
 H    5.070677   -0.982766    0.326152
 H    4.674389   -1.108427    2.053937
 H    5.633840    0.286684    1.461942
