35 
1b4d_ligand_aiqm1.xyz
 N    0.435061   -1.760530   -2.150705
 C   -0.338400   -0.987137    0.548894
 O    0.159641   -2.311038    0.507835
 C   -2.444463    0.315458    0.346717
 C   -1.721534    1.262962   -0.600838
 C   -2.180485    2.695873   -0.464812
 C    0.332820    0.001541   -0.429428
 C   -1.825001   -1.063944    0.252809
 O   -2.493498   -1.899017    1.179641
 O   -3.804358    0.290413   -0.027156
 O   -0.312258    1.260926   -0.286423
 N    1.720496    0.307376   -0.120247
 O   -1.592857    3.530861   -1.439561
 C    2.551699   -0.245626    0.791681
 O    2.354715   -1.248109    1.460381
 C    4.671210   -0.067056    1.748936
 O    3.686592    0.458803    0.851166
 C    0.322103   -0.435459   -1.934589
 O    0.290222    0.402225   -2.812092
 H    0.394689   -2.407801   -1.379081
 H    0.449428   -2.081384   -3.103041
 H   -0.203189   -0.561566    1.546016
 H    1.021141   -2.269945    0.952186
 H   -2.330107    0.672601    1.380657
 H   -1.875745    0.929473   -1.633125
 H   -3.257740    2.732531   -0.618220
 H   -1.958300    3.053112    0.550982
 H   -1.964459   -1.449019   -0.766098
 H   -1.995653   -2.719006    1.234976
 H   -4.233558   -0.394740    0.492250
 H    2.038939    1.166496   -0.538225
 H   -0.645846    3.376263   -1.428757
 H    4.952695   -1.073782    1.449834
 H    4.281308   -0.090709    2.763704
 H    5.514891    0.608854    1.673733
