50 
1b56_ligand_aiqm1.xyz
 C   48.340547   22.051704   33.466653
 O   48.884576   22.811165   34.453425
 O   48.924847   21.081398   33.072250
 C   47.019890   22.519472   32.896739
 C   47.220118   23.107882   31.493151
 C   48.109781   24.344964   31.474866
 C   48.253830   24.942505   30.081949
 C   49.141748   26.180554   30.061453
 C   49.390198   26.743682   28.664865
 C   48.136036   27.250389   27.963199
 C   48.438296   27.866303   26.602680
 C   47.216770   28.449923   25.897602
 C   46.139229   27.424304   25.561298
 C   44.986623   28.039238   24.777899
 C   43.923006   27.055463   24.291684
 C   43.190843   26.298149   25.407113
 C   43.803205   24.945312   25.763127
 C   43.047542   24.254066   26.892485
 H   48.312716   23.562917   34.633301
 H   46.539912   23.250287   33.553338
 H   46.370703   21.646937   32.830702
 H   46.241602   23.354014   31.076221
 H   47.655518   22.337200   30.852095
 H   49.101358   24.092691   31.865511
 H   47.693717   25.104322   32.148883
 H   47.260245   25.189736   29.692005
 H   48.670837   24.185979   29.409546
 H   50.103519   25.934379   30.520393
 H   48.690305   26.957564   30.690901
 H   49.859741   25.973016   28.042251
 H   50.113113   27.561625   28.738785
 H   47.637547   27.993282   28.597240
 H   47.426521   26.424533   27.839674
 H   48.896031   27.103329   25.961836
 H   49.187575   28.654692   26.725263
 H   47.542062   28.939999   24.974685
 H   46.777086   29.235893   26.523451
 H   45.756467   26.977929   26.486313
 H   46.584596   26.607778   24.979830
 H   45.392395   28.572230   23.912250
 H   44.505891   28.799123   25.406191
 H   44.376715   26.333378   23.602489
 H   43.194034   27.618247   23.703590
 H   42.152771   26.125361   25.105392
 H   43.143241   26.928597   26.302892
 H   44.852276   25.061242   26.040312
 H   43.794216   24.308840   24.872551
 H   43.065425   24.862427   27.799230
 H   42.001567   24.097655   26.620641
 H   43.481911   23.282423   27.129099
