41 
1b9s_ligand_ani-2x.xyz
 C   33.472910  -10.277707   63.445917
 C   32.239545   -9.669856   63.665203
 C   31.240279  -10.377516   64.365118
 C   31.512819  -11.654697   64.854597
 C   32.773761  -12.221538   64.677643
 C   33.745212  -11.538669   63.949802
 C   33.134309  -13.580030   65.198894
 O   32.408992  -14.044654   66.240887
 O   34.037384  -14.237152   64.751856
 N   29.980613   -9.784518   64.564403
 C   28.818969  -10.375832   64.965950
 C   27.707095   -9.369092   65.264882
 O   28.645206  -11.580505   65.076998
 C   27.359915   -8.505336   64.039727
 C   27.001084   -9.326761   62.803501
 C   28.044280   -8.501400   66.489235
 C   28.334772   -9.331160   67.739715
 N   32.044512   -8.381772   63.077884
 C   31.467473   -7.251922   63.576749
 C   31.704424   -5.998057   62.766123
 O   30.799262   -7.207486   64.605730
 H   34.238710   -9.751118   62.880335
 H   30.694190  -12.192389   65.322431
 H   34.703940  -12.017064   63.781438
 H   31.815899  -13.355694   66.571907
 H   30.010024   -8.769885   64.601994
 H   26.840604   -9.996436   65.508289
 H   28.199382   -7.830930   63.817658
 H   26.514259   -7.861002   64.311962
 H   27.859515   -9.905718   62.444643
 H   26.191652  -10.032827   63.022246
 H   26.672362   -8.677771   61.985975
 H   27.190708   -7.838151   66.678526
 H   28.898104   -7.847126   66.258479
 H   27.517316  -10.032241   67.948052
 H   29.251380   -9.919946   67.626112
 H   28.456768   -8.688575   68.616955
 H   32.618494   -8.236942   62.260515
 H   30.733214   -5.548460   62.549061
 H   32.268005   -5.288538   63.377917
 H   32.238855   -6.166831   61.827691
