41 
1b9t_ligand_dft.xyz
 C   -0.596559   -1.746903    0.866760
 C   -0.080412   -0.464976    0.674800
 C   -0.937736    0.579425    0.279676
 C   -2.289050    0.296101    0.062504
 C   -2.781834   -0.997566    0.212574
 C   -1.929526   -2.025384    0.614562
 C   -4.218086   -1.345413   -0.054473
 O   -5.116264   -0.344199    0.045167
 N   -0.405799    1.875131    0.147999
 C   -0.898955    2.905633   -0.654194
 N   -1.552506    2.483230   -1.804408
 N    1.315344   -0.237851    0.853572
 C    2.332527   -0.681283   -0.122761
 C    3.651422   -0.336981    0.598430
 C    3.295520    0.817432    1.533565
 C    1.797857    0.702666    1.732197
 C    2.139110    0.154212   -1.399398
 O    3.091756   -0.264016   -2.363916
 C    2.258210   -2.187912   -0.435014
 O    3.421719   -2.650529   -1.069527
 O   -4.575864   -2.456570   -0.346323
 N   -0.776103    4.155638   -0.421250
 O    1.109136    1.360784    2.495288
 H    0.065560   -2.531172    1.215081
 H   -2.922202    1.106450   -0.284470
 H   -2.326071   -3.027259    0.733292
 H   -4.707659    0.441653    0.431344
 H    0.095039    2.177507    0.979358
 H   -1.716833    3.258035   -2.433124
 H   -1.162480    1.669827   -2.261510
 H    4.437017   -0.097877   -0.119565
 H    3.983058   -1.209787    1.167247
 H    3.495547    1.800368    1.091584
 H    3.806075    0.789804    2.498448
 H    2.255872    1.221279   -1.163325
 H    1.113869   -0.000426   -1.768011
 H    2.935459    0.211495   -3.186783
 H    1.355074   -2.407213   -1.026717
 H    2.182720   -2.735341    0.509790
 H    3.536718   -2.104035   -1.861469
 H   -0.392097    4.325587    0.506559
