41 
1b9t_ligand_aiqm1.xyz
 C   33.784267  -10.002292   64.390418
 C   32.452680   -9.680182   64.099129
 C   31.421952  -10.459513   64.676406
 C   31.752725  -11.524598   65.511565
 C   33.083441  -11.847453   65.778028
 C   34.094093  -11.081755   65.206038
 C   33.479653  -12.998406   66.650904
 O   32.570010  -13.407283   67.564824
 N   30.040238  -10.159107   64.472673
 C   29.404337  -10.375707   63.249868
 N   29.816010  -11.517451   62.599078
 N   32.140628   -8.567281   63.257865
 C   32.521861   -8.416246   61.822661
 C   32.195104   -6.940231   61.564700
 C   31.029580   -6.642654   62.494623
 C   31.277615   -7.567264   63.673567
 C   31.651044   -9.374516   60.992806
 O   31.918435   -9.157157   59.606675
 C   34.004270   -8.695870   61.570942
 O   34.427119   -8.231309   60.308597
 O   34.546376  -13.541887   66.576105
 N   28.528415   -9.609239   62.717905
 O   30.788049   -7.488784   64.783041
 H   34.587475   -9.399975   63.993166
 H   30.935937  -12.113388   65.922918
 H   35.122121  -11.340063   65.417692
 H   31.816078  -12.810787   67.569255
 H   29.776016   -9.292615   64.928747
 H   29.156853  -11.846913   61.916279
 H   30.251039  -12.222433   63.169943
 H   31.985841   -6.754752   60.516282
 H   33.065297   -6.347755   61.848667
 H   30.079569   -6.930692   62.044828
 H   30.959274   -5.610261   62.826915
 H   30.593592   -9.207239   61.208795
 H   31.909257  -10.398573   61.270406
 H   31.385634   -9.774365   59.107256
 H   34.182463   -9.775309   61.680566
 H   34.600716   -8.161154   62.311288
 H   33.777470   -8.529893   59.661536
 H   28.369968   -8.796949   63.306245
