51 
1b9v_ligand_ani-2x.xyz
 C   33.817750   -9.480748   64.914014
 C   32.609056   -9.186309   64.299846
 C   31.519389  -10.085025   64.412713
 C   31.697832  -11.257892   65.156226
 C   32.927446  -11.558041   65.748917
 C   33.985793  -10.657552   65.633107
 C   33.191726  -12.812057   66.528167
 N   32.462511   -7.987769   63.530961
 N   30.321056   -9.778281   63.783367
 C   29.141157  -10.615426   63.775910
 C   29.325036  -11.843271   62.865361
 C   28.171532  -12.843576   62.926301
 C   27.949564   -9.752904   63.349180
 C   27.673280   -8.576583   64.284510
 C   33.066718   -7.792716   62.220265
 C   32.341660   -6.524724   61.725870
 C   31.922381   -5.784805   62.999473
 C   31.813049   -6.885498   64.042065
 O   31.255702   -6.848610   65.118536
 C   32.826536   -9.009075   61.325615
 O   31.441012   -9.209866   61.084837
 C   34.573037   -7.554539   62.294286
 O   34.839518   -6.439188   63.115428
 O   32.208643  -13.738602   66.579149
 O   34.236093  -13.022457   67.089096
 H   34.632339   -8.764725   64.851802
 H   30.845554  -11.926416   65.260362
 H   34.928712  -10.899988   66.107959
 H   30.435561   -9.199502   62.962331
 H   28.968245  -10.964569   64.806554
 H   30.257801  -12.343986   63.155679
 H   29.472456  -11.502055   61.829215
 H   27.991227  -13.179769   63.953639
 H   27.237479  -12.416466   62.547512
 H   28.395326  -13.727161   62.320699
 H   27.053501  -10.381221   63.280716
 H   28.143759   -9.379291   62.332500
 H   27.473590   -8.924134   65.305525
 H   28.520243   -7.885737   64.323650
 H   26.793320   -8.017324   63.949204
 H   31.457837   -6.833501   61.159803
 H   32.974288   -5.924693   61.066531
 H   30.983306   -5.235118   62.901842
 H   32.698571   -5.087452   63.326893
 H   33.256445   -9.892819   61.824073
 H   33.357170   -8.845994   60.373030
 H   31.343558  -10.026009   60.579534
 H   34.925284   -7.376656   61.263841
 H   35.077342   -8.460657   62.665209
 H   35.783348   -6.246646   63.076845
 H   31.445356  -13.455295   66.059150
