51 
1b9v_ligand_aiqm1.xyz
 C   33.770462   -9.433134   64.882890
 C   32.584205   -9.174658   64.202055
 C   31.508933  -10.085183   64.268211
 C   31.676249  -11.268847   64.989255
 C   32.885173  -11.536033   65.641590
 C   33.926875  -10.617747   65.592459
 C   33.124979  -12.801882   66.407117
 N   32.462168   -7.985974   63.421408
 N   30.334347   -9.756173   63.568295
 C   29.144678  -10.608802   63.700948
 C   29.276121  -11.813022   62.764957
 C   28.295147  -12.936994   63.079954
 C   27.914151   -9.767591   63.389460
 C   27.632283   -8.687209   64.430053
 C   33.187260   -7.800067   62.151124
 C   32.554245   -6.517431   61.581889
 C   31.883873   -5.831586   62.769835
 C   31.600713   -6.969289   63.724740
 O   30.762573   -7.007134   64.610705
 C   32.957735   -9.012343   61.232538
 O   31.604501   -9.220635   60.898653
 C   34.693060   -7.643788   62.345972
 O   34.940128   -6.599940   63.273411
 O   32.030867  -13.502057   66.792763
 O   34.220664  -13.203861   66.688634
 H   34.563478   -8.696352   64.853551
 H   30.874737  -11.993412   64.996940
 H   34.845515  -10.846356   66.111948
 H   30.113147   -8.782997   63.762372
 H   29.064321  -10.971747   64.741370
 H   30.301323  -12.189086   62.816420
 H   29.133454  -11.463046   61.739254
 H   28.430227  -13.304613   64.100446
 H   27.258481  -12.611010   62.982865
 H   28.438564  -13.777667   62.402208
 H   27.049893  -10.431367   63.311538
 H   28.054564   -9.317070   62.403306
 H   27.526761   -9.125988   65.423694
 H   28.423511   -7.937548   64.485351
 H   26.704841   -8.165972   64.194949
 H   31.807155   -6.798256   60.842890
 H   33.302251   -5.894093   61.095940
 H   30.976206   -5.287563   62.522131
 H   32.570061   -5.153066   63.275747
 H   33.393356   -9.897488   61.712446
 H   33.483916   -8.832956   60.292254
 H   31.114508   -9.475116   61.700995
 H   35.131215   -7.414371   61.369295
 H   35.123643   -8.590034   62.689605
 H   35.877042   -6.399055   63.266264
 H   31.235540  -13.005089   66.584606
