20 
1bap_ligand_ani-2x.xyz
 C   -1.462852    0.411480   -0.280322
 C   -0.732925   -0.863760    0.125016
 C    0.670161   -0.526245    0.618938
 C    1.417159    0.270468   -0.441126
 C    0.586974    1.477828   -0.844963
 O   -1.673045    1.151702    0.905287
 O   -1.435633   -1.598032    1.107521
 O    1.388863   -1.723816    0.850607
 O    1.632263   -0.530303   -1.580767
 O   -0.735733    1.124974   -1.240331
 H   -2.421585    0.171043   -0.753204
 H   -0.644771   -1.510846   -0.750966
 H    0.599978    0.069025    1.544674
 H    2.374478    0.621423   -0.018739
 H    0.554144    2.195293   -0.012787
 H    1.035643    1.962959   -1.713895
 H   -2.140442    1.963814    0.666863
 H   -1.718635   -0.958393    1.777726
 H    0.761321   -2.326745    1.278212
 H    1.944639   -1.381768   -1.238143
