30 
1bcj_ligand_aiqm1.xyz
 C   -0.226532    1.344425    0.046269
 C    0.616090    0.072344   -0.101832
 C   -0.136697   -0.945202   -0.959755
 C   -1.501791   -1.224453   -0.341240
 C   -2.234116    0.098892   -0.097529
 C   -3.553451   -0.062931    0.631287
 C    2.959101    0.752986    0.066405
 C    4.316634    0.677855   -0.583683
 N    1.915761    0.337962   -0.696084
 O    0.347380    2.329041    0.808231
 O    0.612673   -2.129179   -1.136529
 O   -1.248884   -1.988528    0.823998
 O   -1.454111    0.983707    0.687492
 O   -3.371009   -0.572676    1.948206
 O    2.804161    1.171478    1.209255
 H   -0.464063    1.759153   -0.949268
 H    0.759683   -0.334097    0.901190
 H   -0.280476   -0.518390   -1.957152
 H   -2.095532   -1.820513   -1.046122
 H   -2.439341    0.544897   -1.084521
 H   -4.058950    0.904542    0.660503
 H   -4.187127   -0.778705    0.108244
 H    4.832992   -0.206073   -0.208718
 H    4.253934    0.617804   -1.670150
 H    4.893132    1.551227   -0.291646
 H    2.128533   -0.182207   -1.533513
 H    1.161985    1.986950    1.217015
 H    0.464941   -2.666115   -0.351291
 H   -1.938975   -1.799348    1.469642
 H   -2.875847    0.095255    2.431696
