27 
1bcu_ligand_ani-2x.xyz
 C    8.948650   23.168312   49.512158
 C    9.664923   23.637538   48.450029
 C   10.603095   22.799346   47.769404
 C   10.779802   21.504522   48.195130
 C    9.861584   17.858065   51.056880
 C    9.209648   17.265960   52.112082
 C    8.251131   18.023357   52.856100
 C    7.979729   19.320534   52.531903
 C    8.414408   21.286009   51.059060
 N   10.281969   19.714050   49.655303
 C   10.052577   20.982650   49.299534
 C    8.641601   19.964862   51.443833
 C    9.111220   21.829765   49.980285
 C    9.605665   19.208056   50.692152
 N   11.275230   23.293680   46.652848
 N    9.420214   15.926378   52.434729
 H    8.238019   23.815911   50.021776
 H    9.527279   24.658044   48.099605
 H   11.473767   20.826076   47.708806
 H   10.592313   17.324946   50.456742
 H    7.735294   17.542390   53.684194
 H    7.248559   19.886412   53.105733
 H    7.691132   21.894619   51.602527
 H   11.398066   24.295182   46.641560
 H   12.132043   22.808348   46.425318
 H   10.305598   15.550354   52.124726
 H    9.228382   15.687634   53.396181
