18 
1bio_ligand_aiqm1.xyz
 C    5.821636    6.175204    1.453815
 C    4.990645    7.307363    1.490338
 C    3.610725    7.136318    1.627648
 C    3.059187    5.864153    1.719933
 C    5.251300    4.907567    1.530414
 C    3.875453    4.738496    1.667679
 N    5.557919    8.587886    1.453669
 C    7.309670    6.337183    1.354953
 O    7.623249    7.020034    0.130662
 H    2.968891    8.010683    1.663555
 H    1.987542    5.755959    1.825160
 H    5.902993    4.041169    1.486927
 H    3.451832    3.745997    1.728482
 H    6.362644    8.637252    0.842549
 H    4.885956    9.301971    1.218062
 H    7.785247    5.352386    1.372982
 H    7.686112    6.922044    2.201265
 H    8.574900    7.132035    0.094506
