66 
1biw_ligand_aiqm1.xyz
 C    2.711718   -0.715833    0.274183
 O    2.477850   -0.919539    1.463046
 N    3.872486   -1.073163   -0.309856
 C    4.194155   -0.804899   -1.712429
 C    4.335070    0.676246   -2.069975
 C    2.997458    1.387113   -2.257962
 C    2.090390    1.388809   -1.034821
 C    1.660109   -0.022645   -0.595116
 N    0.453447    0.021529    0.203120
 C   -0.764650    0.188935   -0.328065
 C   -1.909248    0.148688    0.688274
 C   -3.221005    0.778754    0.174301
 C   -2.978890    2.259802   -0.060063
 O   -3.114755    3.095803    0.832300
 N   -2.636291    2.651790   -1.309740
 O   -2.249345    3.988722   -1.409066
 C   -3.907052    0.060971   -0.987148
 C   -5.317751    0.592815   -1.223510
 C   -6.036011   -0.133827   -2.337855
 O   -6.229326   -1.485478   -1.925860
 C   -2.091471   -1.283117    1.218213
 C   -3.158881   -1.433676    2.305856
 C   -3.226647   -2.892892    2.751670
 C   -2.889627   -0.524675    3.503893
 O   -0.922281    0.378962   -1.534012
 C    4.881229   -1.695484    0.538717
 C    5.810759   -0.702241    1.205085
 O    6.555911   -0.026726    0.211718
 C    7.459247    0.894983    0.781001
 H    3.432185   -1.272621   -2.348153
 H    5.134582   -1.314250   -1.910880
 H    4.932503    1.171129   -1.303884
 H    4.894711    0.735569   -3.006715
 H    2.454753    0.915409   -3.085204
 H    3.178060    2.418898   -2.563461
 H    2.560449    1.905771   -0.191493
 H    1.176001    1.930263   -1.277051
 H    1.467372   -0.614679   -1.491745
 H    0.579854   -0.221759    1.172891
 H   -1.582181    0.764572    1.532372
 H   -3.909111    0.765038    1.022273
 H   -2.054338    2.044007   -1.876487
 H   -2.429433    4.300672   -0.500636
 H   -3.321052    0.148819   -1.900802
 H   -3.963396   -1.005575   -0.759560
 H   -5.906497    0.498451   -0.306675
 H   -5.286258    1.656439   -1.476612
 H   -5.436907   -0.096770   -3.253950
 H   -6.998949    0.344610   -2.538575
 H   -6.627528   -1.971824   -2.648741
 H   -1.137291   -1.629200    1.635656
 H   -2.329078   -1.955996    0.388009
 H   -4.132498   -1.171220    1.882593
 H   -4.023601   -3.040931    3.481123
 H   -3.413772   -3.554138    1.904656
 H   -2.283684   -3.192506    3.216651
 H   -1.902028   -0.733277    3.926086
 H   -2.929479    0.533795    3.244358
 H   -3.628835   -0.698776    4.286870
 H    4.358134   -2.256813    1.311355
 H    5.465383   -2.390907   -0.068453
 H    6.485078   -1.241549    1.881741
 H    5.230648    0.014650    1.799296
 H    6.929502    1.643015    1.380051
 H    7.982621    1.387559   -0.034993
 H    8.187478    0.384599    1.422195
