44 
1bjv_ligand_ani-2x.xyz
 N   -1.985101   13.221711   13.809469
 N   -2.317230   11.678541   15.593571
 C   -1.990070   12.918540   15.050012
 C   -1.652843   13.970954   16.051358
 C   -0.832769   15.038073   15.679625
 C   -0.485897   16.034213   16.577612
 C   -0.981314   15.984687   17.884941
 C   -1.826845   14.933200   18.260442
 C   -2.152282   13.937009   17.354433
 N   -0.699419   16.964614   18.853686
 C    0.289871   17.933142   18.806391
 O    1.067505   18.065608   17.879255
 N    0.291877   18.732238   19.936056
 C    1.151069   19.815644   20.212019
 C    0.784041   20.675607   21.253691
 C    1.588217   21.752339   21.599939
 C    2.774070   21.963641   20.908923
 C    3.144937   21.121067   19.869811
 C    2.341973   20.044470   19.516167
 O    3.575161   23.042651   21.226864
 C    4.538460   22.872601   22.193200
 C    5.289286   24.008968   22.496833
 C    6.288705   23.941376   23.456138
 C    6.547095   22.742336   24.117607
 C    5.795608   21.616470   23.807916
 C    4.787230   21.667174   22.846621
 H   -2.243743   12.420374   13.231367
 H   -2.342729   10.916234   14.929679
 H   -1.832894   11.434062   16.447397
 H   -0.463801   15.075601   14.659281
 H    0.160761   16.846564   16.276737
 H   -2.221872   14.888119   19.272825
 H   -2.821652   13.135373   17.655384
 H   -1.202823   16.847217   19.720597
 H   -0.476412   18.639013   20.583764
 H   -0.141707   20.504375   21.797744
 H    1.313139   22.426352   22.406075
 H    4.074622   21.315778   19.341807
 H    2.628316   19.386078   18.707715
 H    5.070151   24.931615   21.966933
 H    6.870438   24.829776   23.689386
 H    7.330068   22.688913   24.869101
 H    5.992098   20.677676   24.319824
 H    4.207704   20.778605   22.614305
