16 
1bky_ligand_aiqm1.xyz
 N   18.472545   14.432995   19.882655
 C   18.529968   13.122221   19.960842
 N   16.822989   14.391743   21.618450
 C   15.911301   15.104692   22.499186
 C   17.626273   15.132188   20.696924
 O   17.517738   16.344367   20.682779
 N   19.389407   12.498280   19.122892
 C   17.740580   12.349573   20.871046
 C   16.902359   13.048515   21.676910
 H   14.885058   14.789349   22.311314
 H   16.169621   14.912939   23.540553
 H   16.018080   16.161183   22.281166
 H   19.933543   13.065864   18.498450
 H   19.499463   11.503420   19.121361
 H   17.797992   11.273988   20.924039
 H   16.260183   12.564683   22.402132
