30 
1bm7_ligand_dft.xyz
 C   25.844665  -28.925024   61.224886
 O   27.802818  -27.602581   60.783189
 C   25.221852  -30.150274   60.939538
 C   23.947488  -30.435204   61.389449
 O   27.751876  -29.713179   60.076979
 C   23.264466  -29.465253   62.127630
 C   23.849627  -28.249092   62.425043
 C   25.159460  -27.951114   62.000375
 C   27.194083  -28.659153   60.699767
 N   25.750663  -26.741481   62.280840
 C   25.375080  -25.803887   63.252251
 C   25.575611  -24.449412   62.972888
 C   25.278002  -23.486373   63.929372
 C   24.759264  -23.849378   65.169383
 C   24.563557  -25.197209   65.447932
 C   24.879062  -26.171302   64.508617
 C   25.446673  -22.029786   63.589107
 F   26.426089  -21.832852   62.690955
 F   25.741217  -21.294964   64.674789
 F   24.321044  -21.514912   63.061405
 H   25.765662  -30.878057   60.348578
 H   23.482440  -31.387776   61.160724
 H   28.619546  -29.407217   59.769798
 H   22.250096  -29.656318   62.466193
 H   23.285386  -27.499898   62.967845
 H   26.613345  -26.567473   61.774277
 H   25.965125  -24.156992   62.003239
 H   24.525631  -23.091249   65.908225
 H   24.181133  -25.497330   66.418514
 H   24.763038  -27.221259   64.755212
