30 
1bm7_ligand_ani-2x.xyz
 C   25.857478  -28.928571   61.248576
 O   27.764279  -27.536938   60.733156
 C   25.282877  -30.179559   61.001471
 C   23.996754  -30.475545   61.427828
 O   27.804411  -29.680546   60.131936
 C   23.265191  -29.504755   62.106184
 C   23.821598  -28.262961   62.383357
 C   25.133767  -27.965177   61.995227
 C   27.202138  -28.621631   60.706552
 N   25.714733  -26.744439   62.288837
 C   25.345381  -25.813539   63.260394
 C   25.571528  -24.466532   62.965651
 C   25.251235  -23.485766   63.893590
 C   24.728223  -23.828296   65.138682
 C   24.533439  -25.170035   65.442786
 C   24.837642  -26.162806   64.515728
 C   25.470610  -22.034654   63.570212
 F   25.999376  -21.857107   62.347539
 F   26.301275  -21.452787   64.457403
 F   24.316279  -21.341110   63.615288
 H   25.865664  -30.915935   60.456477
 H   23.562441  -31.449591   61.222013
 H   28.659686  -29.349104   59.812828
 H   22.249521  -29.713389   62.431495
 H   23.225811  -27.511393   62.893719
 H   26.535172  -26.527917   61.730611
 H   25.992632  -24.194115   62.000020
 H   24.486694  -23.049733   65.854495
 H   24.133203  -25.453443   66.411220
 H   24.694965  -27.208625   64.773726
