30 
1bq4_ligand_xtb.xyz
 C    7.479031   -8.780794   35.525179
 C    8.297630   -7.556778   35.903873
 O    9.021970   -6.947119   35.009030
 O    8.215342   -7.161721   37.046220
 C    6.106728   -8.753068   35.803507
 C    5.377590   -7.459893   36.131807
 O    5.692127   -6.779616   37.197410
 O    4.482466   -7.119792   35.389659
 C    5.331011   -9.904158   35.616920
 C    3.878692   -9.977061   36.060758
 O    2.987861   -9.189185   35.528892
 O    3.589046  -10.812635   36.888830
 C    5.930387  -11.086968   35.166183
 C    5.111982  -12.311320   34.788246
 O    4.388256  -12.920890   35.683635
 O    5.193875  -12.706789   33.646013
 C    7.302656  -11.114621   34.887623
 C    8.031884  -12.407719   34.559082
 O    7.717118  -13.088024   33.493616
 O    8.927331  -12.747621   35.300962
 C    8.078352   -9.963531   35.074167
 C    9.530608   -9.890344   34.630058
 O   10.421681  -10.678182   35.161505
 O    9.819772   -9.054624   33.801936
 H    9.232833   -7.485022   34.207417
 H    6.583100   -6.983002   37.573009
 H    3.354550   -8.387589   35.082575
 H    4.177019  -12.382416   36.484844
 H    6.825796  -12.884995   33.118526
 H   10.055105  -11.479823   35.607920
