29 
1br5_ligand_xtb.xyz
 N    3.764002   -0.389150   -0.790927
 C    2.509935   -0.527609   -1.390426
 C    1.440632    0.011257   -0.548801
 N    0.185512   -0.046339   -0.988650
 C   -0.763459    0.450063   -0.216276
 C   -0.449104    1.032326    1.023398
 N    0.779679    1.094791    1.474672
 C    1.753120    0.581938    0.708073
 N    3.021872    0.648797    1.181467
 C    3.971044    0.171164    0.442939
 N    5.235124    0.186752    0.912393
 C   -2.161010    0.321127   -0.745234
 O   -2.185170    0.318581   -2.151136
 C   -2.806014   -1.001312   -0.242690
 O   -4.053588   -1.156765   -0.873220
 C   -3.049682   -0.999460    1.269548
 O   -3.831017    0.096173    1.662487
 O    2.406092   -1.043222   -2.476689
 H    4.545377   -0.756063   -1.322539
 H   -1.218674    1.460358    1.651634
 H    5.386260    0.679131    1.775290
 H    6.018501   -0.001590    0.313324
 H   -2.783584    1.156978   -0.405916
 H   -1.349083   -0.077020   -2.444356
 H   -2.137702   -1.838105   -0.507465
 H   -3.948296   -0.835159   -1.781516
 H   -3.543152   -1.944168    1.535468
 H   -2.104112   -0.928934    1.810373
 H   -4.633606    0.070158    1.124474
