29 
1br5_ligand_aiqm1.xyz
 N    3.802997   -0.399247   -0.770666
 C    2.548037   -0.564544   -1.360533
 C    1.472371   -0.005676   -0.524918
 N    0.220643   -0.095052   -0.983565
 C   -0.739062    0.402500   -0.215658
 C   -0.426132    1.009836    1.014002
 N    0.813574    1.105566    1.483024
 C    1.782926    0.591590    0.711913
 N    3.068699    0.688699    1.190205
 C    4.004244    0.187729    0.451609
 N    5.290557    0.179908    0.912397
 C   -2.150390    0.285445   -0.731077
 O   -2.178458    0.290761   -2.146770
 C   -2.864696   -0.991664   -0.254365
 O   -4.145732   -1.015570   -0.863201
 C   -3.105168   -1.041821    1.239213
 O   -3.817601    0.099971    1.683959
 O    2.433128   -1.113013   -2.432746
 H    4.572919   -0.819993   -1.269271
 H   -1.217931    1.416785    1.633679
 H    5.422815    0.748253    1.732667
 H    6.030938    0.232724    0.235388
 H   -2.731056    1.143941   -0.392907
 H   -1.338310   -0.075010   -2.443666
 H   -2.281843   -1.868231   -0.563116
 H   -4.009269   -0.751922   -1.778987
 H   -3.654619   -1.960019    1.468151
 H   -2.159467   -1.057815    1.781849
 H   -4.644216    0.110568    1.193092
