35 
1br6_ligand_xtb.xyz
 C    0.609250    1.145603   10.876282
 C    0.825862    1.392741    9.448845
 C    2.080720    1.087518    8.866314
 N   -0.163708    1.915766    8.731837
 C    2.911717    0.317914   10.834008
 N    3.103424    0.550437    9.575004
 C    0.059931    2.162277    7.454477
 N    3.898377   -0.258985   11.548992
 C    1.306126    1.863783    6.882784
 C   -0.472862    8.017781   10.777922
 O    0.227628    8.992080   10.680901
 O   -0.383577    1.370863   11.523241
 N    1.738927    0.594161   11.486677
 N    2.291131    1.331134    7.565557
 C   -1.038936    2.853810    6.686160
 N   -0.770244    4.269682    6.548843
 C   -0.688657    5.125718    7.618916
 C   -0.128266    6.396499    7.426940
 C   -1.185746    4.802989    8.886199
 C   -0.073811    7.303708    8.455933
 C   -1.129489    5.720079    9.913710
 C   -0.580194    6.987842    9.719933
 O   -1.216358    7.832792   11.890570
 H    4.781901   -0.372001   11.083548
 H    3.868057   -0.289815   12.552190
 H    1.505486    2.053670    5.835232
 H    1.646323    0.392269   12.475912
 H   -1.983114    2.715854    7.217800
 H   -1.129685    2.429932    5.683838
 H   -0.186000    4.524207    5.766011
 H    0.266509    6.656189    6.454599
 H   -1.591160    3.824942    9.082795
 H    0.363331    8.279803    8.311534
 H   -1.494118    5.403763   10.882967
 H   -1.764877    7.039797   11.832328
