35 
1br6_ligand_aiqm1.xyz
 C    0.681424    0.406172   10.879112
 C    0.980952    1.010338    9.570150
 C    2.267090    0.874150    9.014179
 N   -0.005343    1.679199    8.953947
 C    3.002938   -0.353352   10.778365
 N    3.282220    0.185786    9.637808
 C    0.285506    2.216401    7.779393
 N    3.943163   -1.124177   11.405841
 C    1.578023    2.090323    7.231839
 C   -0.997978    8.690894   10.358973
 O   -0.653678    9.798973   10.046624
 O   -0.365220    0.437877   11.486138
 N    1.791160   -0.256222   11.410501
 N    2.561331    1.430601    7.828769
 C   -0.809040    2.973239    7.055936
 N   -0.425755    4.336884    6.744954
 C   -0.597359    5.367765    7.654343
 C   -0.508133    6.698200    7.212508
 C   -0.813419    5.120821    9.019609
 C   -0.633970    7.745888    8.104809
 C   -0.951215    6.187226    9.902395
 C   -0.872319    7.508678    9.462300
 O   -1.542255    8.480256   11.584012
 H    4.857998   -1.042716   10.993364
 H    3.935481   -1.138421   12.410601
 H    1.809218    2.553726    6.279454
 H    1.624831   -0.748802   12.275361
 H   -1.709404    2.928898    7.671642
 H   -1.019976    2.466941    6.115252
 H   -0.505367    4.595996    5.777427
 H   -0.325541    6.901994    6.163668
 H   -0.864607    4.109776    9.397761
 H   -0.550359    8.770881    7.770019
 H   -1.086678    5.954867   10.953829
 H   -1.859819    7.575738   11.647918
