17 
1bra_ligand_ani-2x.xyz
 C    7.786820   49.727703   56.120080
 C    7.686675   48.603345   56.940993
 C    7.922274   47.332438   56.426750
 C    8.265113   47.177496   55.086073
 C    8.356415   48.295310   54.259892
 C    8.109772   49.563213   54.771663
 C    7.534181   51.104797   56.648474
 N    7.789021   51.261668   58.008027
 N    7.092438   51.999950   55.852636
 H    7.402230   48.725165   57.983392
 H    7.846863   46.463456   57.076146
 H    8.455881   46.186408   54.683120
 H    8.615568   48.178295   53.210922
 H    8.160156   50.445033   54.139766
 H    7.824803   52.220228   58.328039
 H    8.543324   50.698854   58.378883
 H    6.950866   52.888641   56.335943
