44 
1c3r_ligand_xtb.xyz
 O    5.172023    4.121406    2.665642
 O    3.124285    2.572257    3.003903
 O   -1.401490   -3.716980    0.701945
 N    4.855785    3.139532    1.719830
 N   -3.837906    1.583611   -1.804003
 C   -1.556250   -1.635333   -0.377459
 C   -2.933048   -1.553071   -0.136340
 C   -3.687915   -0.504490   -0.596946
 C   -3.101154    0.534311   -1.342434
 C   -1.720891    0.440984   -1.597953
 C   -0.972423   -0.611876   -1.128286
 C   -0.829855   -2.784760    0.173517
 C    0.700788   -2.754215    0.068973
 C    1.226258   -1.545626    0.776045
 C    2.252907   -0.759800    0.412630
 C    2.598259    0.356961    1.262978
 C    3.593972    1.235234    1.069390
 C    3.813333    2.320266    2.023545
 C    1.292516   -4.017255    0.703660
 C    3.069412   -0.960390   -0.831131
 C   -5.274628    1.590122   -1.677556
 C   -3.197406    2.734629   -2.391721
 H    4.439677    4.021102    3.314759
 H    5.642588    2.903686    1.138293
 H   -3.393012   -2.341154    0.441379
 H   -4.739440   -0.481260   -0.363089
 H   -1.227793    1.197357   -2.186439
 H    0.079434   -0.635666   -1.363532
 H    0.956536   -2.738509   -0.995086
 H    0.723703   -1.327228    1.710042
 H    1.986505    0.499908    2.145028
 H    4.264754    1.185024    0.225649
 H    2.373991   -4.026098    0.590229
 H    1.046860   -4.052184    1.761937
 H    0.871976   -4.900398    0.229592
 H    3.005763   -0.079527   -1.469464
 H    4.114940   -1.110630   -0.565950
 H    2.738614   -1.825001   -1.397509
 H   -5.688041    2.384463   -2.294869
 H   -5.590347    1.757476   -0.641810
 H   -5.694941    0.643229   -2.022787
 H   -2.816139    2.516022   -3.395315
 H   -3.914820    3.548360   -2.468393
 H   -2.367482    3.075409   -1.768591
