75 
1c4v_ligand_aiqm1.xyz
 N   -2.313266   -2.845716    1.129770
 C   -3.138340   -2.180017    2.135046
 N   -2.558832    4.344065    1.376955
 N   -2.882289    3.788044   -0.822598
 C   -2.640522    3.424248    0.490344
 C   -3.251338   -0.655350    1.981651
 C   -1.900618    0.028960    2.191554
 C   -2.020181    1.545214    2.083397
 C   -2.576685    1.926634    0.714004
 C   -3.962854    1.292035    0.537250
 C   -3.858361   -0.231244    0.641028
 C    2.644058   -3.671827   -0.034980
 N    1.803541   -3.024569   -1.039716
 C    2.266767   -1.883916   -1.704514
 O    3.403301   -1.662505   -2.053529
 N    1.131226   -1.107454   -1.929302
 C    0.045762   -1.634574   -1.250163
 O   -1.087325   -1.175169   -1.181819
 N    0.495229   -2.760957   -0.641524
 C   -0.295640   -3.731753    0.081582
 C    0.566758   -4.869709    0.547979
 C    1.901506   -4.852434    0.531158
 C   -0.991865   -3.053624    1.304068
 C    2.736680   -5.973560    1.081294
 O   -0.368575   -2.802191    2.320798
 C    1.183104    0.268736   -2.411318
 C    0.986615    1.244202   -1.237066
 C    0.822366    5.447687   -2.256536
 C    1.292422    4.540482   -3.197265
 C    1.353920    3.174932   -2.904428
 C    0.949227    2.701982   -1.651032
 C    0.474156    3.626983   -0.717584
 C    0.408042    4.984651   -1.008356
 C    3.960982    0.266191    1.745617
 C    4.296536    1.098804    0.681152
 C    3.341696    1.447740   -0.270966
 C    2.033068    0.962182   -0.170127
 C    1.707624    0.133410    0.905942
 C    2.657201   -0.212648    1.861594
 H   -2.643169   -2.840213    0.177822
 H   -2.700424   -2.422677    3.103597
 H   -4.136456   -2.627273    2.091469
 H   -2.454104    3.930923    2.298004
 H   -2.441594    3.214151   -1.524467
 H   -2.756588    4.774992   -0.984195
 H   -3.929720   -0.330122    2.779819
 H   -1.484020   -0.251422    3.163210
 H   -1.206393   -0.328496    1.426810
 H   -1.045698    2.014050    2.248641
 H   -2.690981    1.916460    2.865760
 H   -1.910278    1.506413   -0.049139
 H   -4.627777    1.681950    1.316836
 H   -4.388727    1.584440   -0.426104
 H   -3.222954   -0.584713   -0.174980
 H   -4.845303   -0.689053    0.514696
 H    3.555704   -3.979669   -0.543463
 H    2.908160   -2.965022    0.763036
 H   -1.077282   -4.113426   -0.596109
 H    0.040525   -5.714736    0.971389
 H    3.388509   -6.386933    0.309020
 H    2.106382   -6.774514    1.467850
 H    3.373898   -5.616554    1.891914
 H    2.160895    0.393728   -2.867928
 H    0.405028    0.408233   -3.163854
 H    0.008734    1.008491   -0.804189
 H    0.779350    6.502455   -2.490754
 H    1.615026    4.887375   -4.170564
 H    1.717045    2.495246   -3.665582
 H    0.152920    3.266112    0.253657
 H    0.027725    5.675104   -0.265461
 H    4.710925   -0.002495    2.478511
 H    5.308637    1.472975    0.586542
 H    3.615464    2.087055   -1.101464
 H    0.697284   -0.252450    0.988798
 H    2.374261   -0.857948    2.685014
