75 
1c4v_ligand_dft.xyz
 N   -2.063876    3.213315   -0.405244
 C   -1.340906    4.152253    0.440346
 N    4.760587    1.892299    1.421723
 N    4.643444    1.351040   -0.807416
 C    4.046551    1.779342    0.366234
 C    0.135049    3.791922    0.668156
 C    0.296509    2.384341    1.251904
 C    1.763009    2.021421    1.489037
 C    2.582063    2.161182    0.202502
 C    2.449630    3.589479   -0.356256
 C    0.981582    3.945103   -0.603855
 C   -4.033297   -1.543166   -0.072408
 N   -3.018373   -1.202843   -1.046768
 C   -1.964746   -2.051347   -1.336074
 O   -1.968961   -3.260009   -1.293423
 N   -0.917206   -1.210775   -1.717229
 C   -1.266186    0.117773   -1.542670
 O   -0.601819    1.097939   -1.850632
 N   -2.500022    0.103275   -0.959976
 C   -3.416321    1.230961   -0.913248
 C   -4.773835    0.780263   -0.451387
 C   -5.067050   -0.447946   -0.030713
 C   -2.854436    2.248759    0.126715
 C   -6.405551   -0.829415    0.529545
 O   -3.153034    2.162237    1.304789
 C    0.467571   -1.634392   -1.791140
 C    1.172806   -1.363747   -0.444713
 C    5.440579   -2.085855   -0.378171
 C    4.730887   -2.307523   -1.552537
 C    3.351995   -2.096853   -1.593088
 C    2.663867   -1.664157   -0.457711
 C    3.391082   -1.456989    0.719761
 C    4.763360   -1.658190    0.762182
 C   -1.040957   -3.349812    2.688262
 C   -0.148020   -4.071080    1.897828
 C    0.584556   -3.429275    0.907491
 C    0.435572   -2.058433    0.689104
 C   -0.456955   -1.342442    1.487886
 C   -1.192752   -1.982922    2.483337
 H   -1.667921    3.006920   -1.313977
 H   -1.872686    4.177634    1.393976
 H   -1.411074    5.147493   -0.014453
 H    4.215195    2.300454    2.179174
 H    4.075462    0.748354   -1.388887
 H    5.565558    0.964926   -0.647872
 H    0.511508    4.516125    1.407383
 H   -0.278081    2.290745    2.180316
 H   -0.131708    1.671926    0.537350
 H    1.839976    0.999758    1.880445
 H    2.173226    2.686998    2.261721
 H    2.144518    1.486987   -0.548712
 H    2.891010    4.292351    0.364158
 H    3.026637    3.675978   -1.282466
 H    0.592442    3.279480   -1.385327
 H    0.904306    4.972682   -0.981838
 H   -4.470485   -2.491210   -0.395772
 H   -3.586871   -1.698033    0.921500
 H   -3.480345    1.702309   -1.904797
 H   -5.519478    1.568323   -0.404706
 H   -6.885846   -1.597235   -0.089288
 H   -7.074358    0.032454    0.594422
 H   -6.294592   -1.250135    1.536535
 H    0.462278   -2.698771   -2.038488
 H    0.945672   -1.077238   -2.600333
 H    1.072921   -0.284765   -0.274057
 H    6.514302   -2.245537   -0.348811
 H    5.245974   -2.647553   -2.446225
 H    2.826280   -2.280905   -2.524857
 H    2.870625   -1.127518    1.614576
 H    5.305332   -1.455298    1.679847
 H   -1.610965   -3.852992    3.463666
 H   -0.024591   -5.138626    2.052294
 H    1.278891   -3.996814    0.293422
 H   -0.592407   -0.275516    1.331530
 H   -1.876011   -1.404778    3.099144
