75 
1c4v_ligand_ani-2x.xyz
 N   -1.840415   -2.404144    1.214243
 C   -2.653057   -1.938074    2.319881
 N   -4.442754    4.145244    0.499377
 N   -2.616242    3.960121   -0.863812
 C   -3.488196    3.417424    0.062826
 C   -3.098474   -0.486245    2.103930
 C   -1.896878    0.466814    2.006875
 C   -2.307872    1.912347    1.719325
 C   -3.183864    1.977586    0.455607
 C   -4.433383    1.111805    0.650922
 C   -4.023548   -0.344787    0.884965
 C    2.541469   -3.954996    0.080461
 N    1.783621   -3.056652   -0.770515
 C    2.300376   -1.961616   -1.413983
 O    3.462145   -1.752444   -1.682227
 N    1.197167   -1.149524   -1.696449
 C    0.062679   -1.682861   -1.112998
 O   -1.063593   -1.220532   -1.174921
 N    0.463548   -2.794982   -0.419814
 C   -0.373606   -3.921518    0.000314
 C    0.422232   -5.171425    0.239015
 C    1.749462   -5.224985    0.313102
 C   -1.175993   -3.572397    1.280179
 C    2.524250   -6.447315    0.701956
 O   -1.200291   -4.316266    2.248563
 C    1.274489    0.210440   -2.191527
 C    1.199061    1.243703   -1.047443
 C    1.082331    5.421022   -2.207633
 C    1.235400    4.447718   -3.188252
 C    1.259371    3.097639   -2.844592
 C    1.129166    2.695005   -1.514998
 C    0.968944    3.684736   -0.538559
 C    0.949281    5.034339   -0.875696
 C    4.435419    0.631830    1.759236
 C    4.686485    1.183029    0.505701
 C    3.639351    1.382262   -0.389681
 C    2.333693    1.038635   -0.045633
 C    2.091177    0.478695    1.210754
 C    3.135455    0.278559    2.111679
 H   -1.817411   -1.869614    0.351357
 H   -2.068854   -2.028106    3.243687
 H   -3.529144   -2.590064    2.443387
 H   -5.032545    3.617623    1.140444
 H   -1.659330    3.633748   -0.897329
 H   -2.722509    4.960829   -0.958526
 H   -3.681767   -0.196423    2.991542
 H   -1.312596    0.415187    2.935895
 H   -1.238142    0.130009    1.192559
 H   -1.414469    2.539909    1.603735
 H   -2.874548    2.326359    2.565162
 H   -2.615491    1.537999   -0.379283
 H   -5.008141    1.473234    1.517260
 H   -5.090741    1.186397   -0.223492
 H   -3.514926   -0.709855   -0.019107
 H   -4.912480   -0.975055    1.020086
 H    3.478835   -4.157670   -0.435947
 H    2.786385   -3.477747    1.042134
 H   -1.113639   -4.109276   -0.794499
 H   -0.195021   -6.040228    0.439675
 H    3.274107   -6.693383   -0.058675
 H    1.865310   -7.313430    0.822559
 H    3.059265   -6.293537    1.647569
 H    2.217387    0.288158   -2.737964
 H    0.435171    0.354583   -2.874993
 H    0.262849    1.028023   -0.513963
 H    1.070344    6.474360   -2.474532
 H    1.339512    4.734177   -4.231970
 H    1.383331    2.361191   -3.635365
 H    0.870762    3.394295    0.507619
 H    0.827058    5.786065   -0.098636
 H    5.252777    0.477094    2.459558
 H    5.699898    1.459743    0.224661
 H    3.839380    1.815696   -1.369625
 H    1.075694    0.195512    1.488787
 H    2.935384   -0.153595    3.089550
