26 
1c83_ligand_ani-2x.xyz
 C   45.257782   11.838444    2.069804
 C   45.330641   12.902741    2.966288
 C   44.650746   14.064009    2.634665
 C   43.904282   14.148760    1.408792
 C   43.855865   13.062584    0.538450
 C   44.535850   11.884310    0.857824
 C   44.706452   10.603284    0.224477
 C   45.496799    9.856041    1.046479
 N   45.832502   10.595945    2.161485
 N   44.680255   15.174130    3.489278
 C   45.333856   15.267849    4.683049
 C   45.162387   16.632720    5.376099
 O   45.658836   16.908433    6.430709
 O   44.391690   17.477768    4.660758
 O   46.008734   14.422047    5.233024
 C   43.173293   15.379152    1.039667
 O   43.115730   16.410826    1.688324
 O   42.526227   15.294540   -0.138013
 H   45.892870   12.838452    3.889350
 H   43.285276   13.153824   -0.379794
 H   44.287617   10.292581   -0.723085
 H   45.857248    8.842155    0.934107
 H   46.407226   10.287708    2.928021
 H   44.149510   15.979249    3.158002
 H   44.340408   18.303340    5.170216
 H   42.095915   16.157107   -0.254976
