26 
1c83_ligand_dft.xyz
 C   45.263942   11.824623    2.069807
 C   45.339174   12.888114    2.968392
 C   44.661377   14.056314    2.647173
 C   43.913742   14.144386    1.424850
 C   43.863430   13.057999    0.552385
 C   44.536787   11.879773    0.858492
 C   44.696177   10.606271    0.210739
 C   45.486208    9.851999    1.023695
 N   45.831041   10.582160    2.146271
 N   44.687020   15.172412    3.498068
 C   45.332155   15.286890    4.689100
 C   45.149131   16.661100    5.366892
 O   45.648865   16.943370    6.419933
 O   44.374681   17.495980    4.650981
 O   46.010469   14.448273    5.248193
 C   43.184388   15.372851    1.058950
 O   43.129666   16.404363    1.711393
 O   42.536537   15.288077   -0.116935
 H   45.901090   12.824844    3.889249
 H   43.293663   13.144922   -0.365153
 H   44.275303   10.299353   -0.735570
 H   45.842347    8.839174    0.903070
 H   46.408769   10.253684    2.902189
 H   44.153777   15.975330    3.162885
 H   44.314249   18.328100    5.146507
 H   42.104010   16.147637   -0.238556
