28 
1c84_ligand_aiqm1.xyz
 C   46.052675    9.792447    1.188513
 C   46.168955   10.883218    2.010166
 C   45.427375   12.066796    1.749129
 C   44.569600   12.099072    0.620787
 C   44.462886   10.955055   -0.213459
 C   45.188698    9.826665    0.064342
 C   45.518714   13.195605    2.597376
 C   44.787392   14.332251    2.337746
 C   43.938912   14.388182    1.183525
 C   43.845452   13.285495    0.364057
 C   43.130951   15.611299    0.878413
 O   42.701537   16.370138    1.709659
 O   42.879082   15.849404   -0.423940
 N   44.833602   15.465422    3.169080
 C   45.695599   15.709847    4.167460
 O   46.631301   15.019208    4.545914
 C   45.427722   17.046475    4.876206
 O   44.529791   17.781432    4.577550
 O   46.303530   17.278976    5.844124
 H   46.621054    8.895998    1.396284
 H   46.826363   10.855333    2.869816
 H   43.799409   10.984463   -1.070225
 H   45.104587    8.957132   -0.572486
 H   46.169784   13.149596    3.458839
 H   43.172990   13.293206   -0.489247
 H   43.364879   15.226051   -0.972111
 H   44.113973   16.173075    3.034315
 H   46.904685   16.514256    5.849766
