28 
1c84_ligand_xtb.xyz
 C   46.064892    9.821614    1.194689
 C   46.188559   10.917030    2.002790
 C   45.443249   12.086508    1.743119
 C   44.566064   12.106738    0.627158
 C   44.457225   10.958621   -0.185682
 C   45.192502    9.841112    0.093409
 C   45.530945   13.222880    2.566323
 C   44.792308   14.356141    2.313867
 C   43.943318   14.400423    1.164578
 C   43.839811   13.282007    0.366698
 C   43.161912   15.628413    0.850978
 O   42.859577   16.454536    1.676554
 O   42.797675   15.801795   -0.425719
 N   44.860573   15.470513    3.146105
 C   45.671659   15.678547    4.188799
 O   46.542066   14.953435    4.652155
 C   45.453959   17.047568    4.873185
 O   44.641896   17.847373    4.504376
 O   46.283120   17.190880    5.891571
 H   46.637186    8.928786    1.397440
 H   46.855580   10.906476    2.851671
 H   43.785034   10.978817   -1.031533
 H   45.108326    8.964227   -0.530707
 H   46.185966   13.194955    3.421780
 H   43.156548   13.262095   -0.473910
 H   43.141752   15.117845   -1.015733
 H   44.181913   16.216607    2.945938
 H   46.827884   16.370157    5.941699
