22 
1c85_ligand_ani-2x.xyz
 C   12.519069   45.333598   18.982164
 C   11.597305   46.022336   19.760279
 C   10.250028   46.000516   19.418893
 C    9.806302   45.281274   18.297990
 C   10.749938   44.578101   17.540015
 C   12.096588   44.601595   17.874821
 C    8.345305   45.194897   17.970406
 O    8.031371   45.008782   16.677806
 O    7.447342   45.275687   18.782040
 N    9.316739   46.737485   20.180107
 C    9.222305   46.654650   21.545978
 O   10.105591   46.304772   22.294461
 C    7.839083   47.077496   22.097464
 O    7.734542   47.789976   23.052399
 O    6.768588   46.597682   21.440241
 H   13.571266   45.359505   19.252754
 H   11.908012   46.579269   20.637356
 H   10.422346   43.969013   16.698138
 H   12.817168   44.056688   17.270304
 H    8.815994   45.117050   16.123202
 H    8.486186   46.995963   19.671419
 H    7.007831   45.977164   20.725663
