27 
1cbx_ligand_ani-2x.xyz
 C   -2.656984    0.240275   -1.322246
 C   -1.536355    0.463018   -0.339941
 C   -1.029194   -0.869243    0.192709
 C   -2.150420   -1.566145    0.930515
 C    0.158280   -0.716167    1.164252
 C    1.328504    0.025221    0.560843
 C    1.719627    1.272834    1.051252
 C    2.023324   -0.507910   -0.528286
 C    2.780702    1.968600    0.476816
 C    3.087379    0.180376   -1.102265
 C    3.468830    1.422386   -0.601742
 O   -3.015950   -0.842061   -1.722593
 O   -3.227878    1.388453   -1.726765
 O   -2.003093   -2.904676    0.959885
 O   -3.054923   -0.999986    1.496957
 H   -1.908900    1.088081    0.478612
 H   -0.733774    1.018996   -0.839774
 H   -0.733773   -1.510752   -0.642704
 H   -0.186958   -0.194720    2.065553
 H    0.466938   -1.719690    1.481643
 H    1.182282    1.704423    1.894212
 H    1.727657   -1.476355   -0.931567
 H    3.069655    2.938579    0.875380
 H    3.618711   -0.253515   -1.946296
 H    4.298886    1.961462   -1.051677
 H   -3.934739    1.132128   -2.342482
 H   -2.757535   -3.243814    1.469608
