27 
1cbx_ligand_xtb.xyz
 C   -2.669991    0.366879   -1.227549
 C   -1.573282    0.525573   -0.205528
 C   -1.009581   -0.833125    0.199009
 C   -2.103460   -1.653255    0.853358
 C    0.157647   -0.694158    1.196575
 C    1.319373    0.019820    0.565351
 C    1.575766    1.355743    0.844345
 C    2.141053   -0.646803   -0.335695
 C    2.632452    2.012432    0.237195
 C    3.196496    0.007662   -0.944177
 C    3.444144    1.340320   -0.659827
 O   -3.011781   -0.668784   -1.730884
 O   -3.238807    1.539101   -1.529491
 O   -1.901063   -2.963072    0.697491
 O   -3.025011   -1.204887    1.480129
 H   -2.000655    1.032137    0.662364
 H   -0.792465    1.163777   -0.622759
 H   -0.667737   -1.376864   -0.685013
 H   -0.190537   -0.148916    2.075864
 H    0.465865   -1.694504    1.508144
 H    0.946919    1.884968    1.546157
 H    1.952945   -1.687701   -0.556843
 H    2.821607    3.051162    0.465255
 H    3.828774   -0.522860   -1.640894
 H    4.268447    1.851886   -1.134093
 H   -3.952391    1.413583   -2.174894
 H   -2.614425   -3.470316    1.116308
