17 
1ce5_ligand_xtb.xyz
 C   12.189774   28.639450   26.276926
 C   11.436211   28.018867   27.269279
 C   11.202891   28.657448   28.472072
 C   11.724478   29.920649   28.701084
 C   12.488932   30.537053   27.725138
 C   12.721042   29.902867   26.517564
 C   12.417240   27.927062   25.002026
 N   12.645651   28.714907   23.899663
 N   12.428543   26.659654   25.014120
 H   11.047865   27.032210   27.073474
 H   10.613707   28.170550   29.235294
 H   11.542046   30.421374   29.640700
 H   12.909367   31.515883   27.905899
 H   13.341685   30.383988   25.775046
 H   12.662546   28.265794   22.997961
 H   12.352600   29.676523   23.908767
 H   12.593923   26.229522   24.106988
