17 
1ce5_ligand_aiqm1.xyz
 C   12.189970   28.626082   26.285675
 C   11.447079   28.000873   27.290378
 C   11.210602   28.654294   28.492150
 C   11.721332   29.933384   28.705943
 C   12.476679   30.553364   27.713833
 C   12.708392   29.903642   26.505248
 C   12.424927   27.910317   24.998645
 N   12.760540   28.730531   23.928223
 N   12.345145   26.634457   24.964984
 H   11.075043   27.002145   27.112836
 H   10.635361   28.166106   29.268039
 H   11.540080   30.440732   29.644530
 H   12.890754   31.538917   27.883034
 H   13.321671   30.372948   25.746774
 H   12.718219   28.280396   23.030052
 H   12.340963   29.645499   23.927225
 H   12.511745   26.280113   24.024430
