17 
1ce5_ligand_ani-2x.xyz
 C   12.202715   28.630254   26.284876
 C   11.430528   28.017518   27.273781
 C   11.184820   28.669998   28.475527
 C   11.723081   29.933526   28.708307
 C   12.511784   30.541168   27.734846
 C   12.747949   29.891988   26.527386
 C   12.445714   27.909486   24.996002
 N   12.691535   28.737451   23.904263
 N   12.438909   26.632890   24.991944
 H   11.033090   27.025563   27.080150
 H   10.575478   28.188405   29.235763
 H   11.531835   30.441026   29.650051
 H   12.936857   31.526366   27.911573
 H   13.377478   30.357323   25.772752
 H   12.649011   28.280195   23.003376
 H   12.209292   29.626606   23.912962
 H   12.628426   26.264038   24.058441
