58 
1ci7_ligand_ani-2x.xyz
 N    3.941757   -3.202907    0.341112
 C    2.839748   -4.012326    0.408069
 N    3.026457   -5.236843    0.998060
 N    1.649175   -3.679437   -0.005765
 C    1.439740   -2.442902   -0.544696
 O    0.339328   -2.078149   -0.968289
 C    2.579673   -1.500935   -0.620352
 C    2.397451   -0.217397   -1.132895
 C    3.439547    0.698865   -1.148139
 C    4.691621    0.282348   -0.662609
 C    4.892704   -0.998596   -0.166511
 C    3.825592   -1.897194   -0.142406
 C    3.202560    2.126235   -1.632861
 N    2.645687    3.032921   -0.622493
 C   -1.250837    1.907152    0.555517
 C   -0.945633    2.154840   -0.784740
 C    0.323361    2.572868   -1.149174
 C    1.337092    2.747187   -0.189078
 C    0.999666    2.571377    1.161538
 C   -0.274887    2.159499    1.518519
 C   -2.578190    1.404979    1.021740
 O   -2.973905    1.587485    2.167411
 N   -3.305524    0.716871    0.101547
 C   -4.581091    0.146860    0.445789
 C   -4.522159   -1.179632    1.232248
 C   -4.227944   -2.449826    0.419294
 C   -2.965053   -2.316103   -0.391610
 O   -1.928582   -2.953737    0.135631
 O   -2.925205   -1.652949   -1.410880
 C   -5.442141    0.065978   -0.801459
 O   -6.565150   -0.648712   -0.579663
 O   -5.211207    0.593167   -1.859603
 C    3.604055    3.483312    0.371415
 C    3.233927    4.771729    0.980635
 C    2.911369    5.811003    1.494410
 H    4.790882   -3.465833    0.821874
 H    3.912754   -5.696101    0.837565
 H    2.227619   -5.842431    0.864187
 H    1.407301    0.041238   -1.501067
 H    5.533341    0.972598   -0.677273
 H    5.873684   -1.296111    0.197804
 H    2.519134    2.107521   -2.488734
 H    4.140163    2.565597   -1.994997
 H   -1.699617    2.037718   -1.561719
 H    0.536314    2.760362   -2.199416
 H    1.728074    2.740306    1.948907
 H   -0.531944    2.016207    2.564722
 H   -2.889555    0.415770   -0.768836
 H   -5.063651    0.873370    1.112231
 H   -5.488521   -1.315547    1.726814
 H   -3.773115   -1.042505    2.019658
 H   -5.051194   -2.621187   -0.278935
 H   -4.149303   -3.305674    1.093733
 H   -1.109112   -2.745109   -0.392010
 H   -7.051798   -0.637131   -1.421132
 H    4.571064    3.596723   -0.128985
 H    3.754509    2.731949    1.164657
 H    2.630264    6.739593    1.941759
