58 
1ci7_ligand_xtb.xyz
 N    4.399124   -3.148081    0.295763
 C    3.392384   -3.965877    0.719240
 N    3.747378   -5.169344    1.225502
 N    2.140128   -3.646310    0.708764
 C    1.722482   -2.421340    0.263437
 O    0.547124   -2.096440    0.301445
 C    2.760431   -1.508013   -0.261501
 C    2.419865   -0.269459   -0.792245
 C    3.398303    0.597833   -1.248838
 C    4.734548    0.205804   -1.171811
 C    5.091966   -1.029611   -0.669790
 C    4.103518   -1.894935   -0.211436
 C    3.004974    1.969646   -1.747647
 N    2.479119    2.795927   -0.673006
 C   -1.438175    1.902033    0.572630
 C   -1.136997    2.096114   -0.773686
 C    0.145488    2.411423   -1.161860
 C    1.183726    2.524663   -0.228278
 C    0.859646    2.395650    1.124236
 C   -0.430127    2.094485    1.510174
 C   -2.781717    1.495577    1.054055
 O   -3.213170    1.782097    2.157981
 N   -3.486946    0.741753    0.175703
 C   -4.779366    0.207234    0.501145
 C   -4.743611   -1.300213    0.823674
 C   -4.206335   -2.149244   -0.335409
 C   -2.696822   -2.012309   -0.469991
 O   -2.059440   -2.658204    0.481972
 O   -2.159774   -1.381883   -1.348809
 C   -5.754247    0.494098   -0.626662
 O   -6.995382    0.085916   -0.331110
 O   -5.477527    1.021552   -1.668577
 C    3.484864    3.153995    0.313487
 C    3.103744    4.351073    1.042194
 C    2.794904    5.344932    1.631752
 H    5.365601   -3.435310    0.357870
 H    4.656289   -5.560410    1.052551
 H    2.989807   -5.794270    1.439830
 H    1.372864   -0.009455   -0.829604
 H    5.507564    0.875917   -1.520690
 H    6.130258   -1.326548   -0.627584
 H    2.244545    1.868054   -2.521912
 H    3.869328    2.479412   -2.184558
 H   -1.908780    2.025716   -1.525486
 H    0.345841    2.575496   -2.209971
 H    1.610696    2.515743    1.887814
 H   -0.671496    1.976407    2.555834
 H   -3.083098    0.476605   -0.710245
 H   -5.123992    0.743600    1.396628
 H   -5.759319   -1.615840    1.065858
 H   -4.113203   -1.451943    1.700977
 H   -4.673125   -1.855881   -1.276726
 H   -4.426047   -3.198256   -0.132880
 H   -1.075779   -2.518355    0.428425
 H   -7.598872    0.290063   -1.063218
 H    4.413937    3.368055   -0.227343
 H    3.692714    2.337710    1.027183
 H    2.520482    6.211304    2.155268
