65 
1cqp_ligand_xtb.xyz
 C    0.654065   -1.266047   -1.790537
 C    1.091379   -2.084180   -3.006246
 C    2.438037   -2.785055   -2.802940
 C    3.622200   -1.880451   -3.166332
 C    2.596485   -3.260896   -1.394527
 C    1.777611   -2.981061   -0.378318
 C    2.049847   -3.495917    0.948595
 C    1.293139   -3.217404    2.006098
 C    0.084481   -2.335270    1.931669
 C   -1.171297   -3.216573    1.910232
 C    0.205900   -1.373370    0.734100
 C    0.520878   -2.161719   -0.552133
 C   -1.032210   -0.483585    0.567699
 C   -1.368828    0.329580    1.817571
 C   -2.517881    1.301929    1.548603
 C   -2.727596    2.284272    2.694769
 C   -3.952323    3.140834    2.378019
 O   -3.683383    3.837143    1.181656
 C   -5.167270    2.218249    2.263520
 C   -4.919192    0.906538    1.529496
 O   -5.836963    0.202194    1.198392
 O   -3.676903    0.500139    1.301979
 O    1.600790   -0.222801   -1.523898
 C    1.273958    1.024701   -1.851371
 O    0.217558    1.352211   -2.329240
 C    2.423366    1.976115   -1.566888
 C    3.112238    2.277718   -2.900947
 C    1.898127    3.258054   -0.916264
 C    1.313444    2.999601    0.466596
 H   -0.306596   -0.793171   -2.025713
 H    0.314097   -2.828408   -3.188593
 H    1.140236   -1.429259   -3.878618
 H    2.475099   -3.656633   -3.470171
 H    3.649176   -1.020435   -2.503484
 H    4.557910   -2.425999   -3.063915
 H    3.535944   -1.535213   -4.194813
 H    3.481363   -3.856269   -1.209048
 H    2.916254   -4.135722    1.046697
 H    1.518404   -3.646409    2.972496
 H    0.052868   -1.733572    2.846922
 H   -2.077419   -2.618117    1.927122
 H   -1.184711   -3.849938    1.027238
 H   -1.173723   -3.863361    2.785499
 H    1.067725   -0.724349    0.934868
 H   -0.314613   -2.843255   -0.751275
 H   -0.857645    0.225902   -0.241741
 H   -1.896352   -1.087141    0.290181
 H   -1.671099   -0.325825    2.634697
 H   -0.494660    0.899973    2.137076
 H   -2.320215    1.875216    0.632922
 H   -1.846136    2.917642    2.781543
 H   -2.883587    1.751882    3.634271
 H   -4.125281    3.865086    3.192615
 H   -4.466783    4.328622    0.913104
 H   -6.000243    2.717823    1.762830
 H   -5.514096    1.944014    3.263574
 H    3.125475    1.470918   -0.897115
 H    3.495896    1.365431   -3.352199
 H    2.403512    2.734676   -3.587885
 H    3.942039    2.963675   -2.746842
 H    1.126518    3.681516   -1.561395
 H    2.716216    3.977478   -0.842067
 H    0.978409    3.931205    0.916542
 H    0.460092    2.330430    0.394032
 H    2.056466    2.546941    1.121091
