65 
1cqp_ligand_ani-2x.xyz
 C    0.644445   -1.284118   -1.718746
 C    1.196190   -2.022816   -2.940129
 C    2.578821   -2.661329   -2.726828
 C    3.751808   -1.695714   -2.950733
 C    2.654923   -3.300810   -1.366280
 C    1.773815   -3.111001   -0.371373
 C    1.942345   -3.767868    0.928382
 C    1.152329   -3.531787    1.979107
 C    0.011598   -2.554571    1.951421
 C   -1.331858   -3.299550    1.887062
 C    0.222789   -1.527007    0.815408
 C    0.544284   -2.240549   -0.516121
 C   -0.941526   -0.533973    0.704187
 C   -1.260226    0.188048    2.013988
 C   -2.283319    1.291793    1.818538
 C   -2.574851    2.079148    3.087898
 C   -3.670412    3.094040    2.809543
 O   -3.158219    3.983958    1.826844
 C   -4.906962    2.356881    2.305578
 C   -4.613392    1.383228    1.174363
 O   -5.373010    1.169918    0.267227
 O   -3.479829    0.658608    1.308474
 O    1.470118   -0.154956   -1.340346
 C    1.358270    0.942959   -2.125773
 O    0.618575    1.012049   -3.084082
 C    2.246664    2.077794   -1.667817
 C    3.346465    2.303916   -2.717165
 C    1.402064    3.344796   -1.463576
 C    0.283603    3.170467   -0.438571
 H   -0.349825   -0.905507   -1.968253
 H    0.471868   -2.815846   -3.173445
 H    1.214891   -1.350805   -3.802873
 H    2.688665   -3.461867   -3.472742
 H    3.733703   -0.875990   -2.225332
 H    4.703853   -2.226796   -2.851070
 H    3.708746   -1.265186   -3.957469
 H    3.526590   -3.928508   -1.181202
 H    2.762776   -4.477264    1.006323
 H    1.303032   -4.082922    2.907373
 H    0.034054   -2.012252    2.908801
 H   -2.182020   -2.611954    1.948316
 H   -1.428062   -3.871521    0.956762
 H   -1.414876   -4.006593    2.719567
 H    1.123971   -0.952022    1.070826
 H   -0.299455   -2.908904   -0.756945
 H   -0.685358    0.231129   -0.040290
 H   -1.841406   -1.033873    0.324173
 H   -1.628358   -0.514844    2.770673
 H   -0.340032    0.637068    2.417373
 H   -1.926018    1.988423    1.048135
 H   -1.665000    2.592229    3.417646
 H   -2.895780    1.400901    3.887139
 H   -3.920691    3.644181    3.729067
 H   -3.866146    4.582197    1.557306
 H   -5.676142    3.049154    1.955403
 H   -5.341265    1.777997    3.131197
 H    2.693783    1.781089   -0.713910
 H    3.962643    1.407044   -2.853166
 H    2.896960    2.553265   -3.684562
 H    4.005848    3.125607   -2.418179
 H    0.973876    3.631214   -2.431927
 H    2.070926    4.157176   -1.153959
 H   -0.215357    4.123268   -0.232940
 H   -0.477371    2.468392   -0.800787
 H    0.671673    2.781068    0.512291
