30 
1ctt_ligand_aiqm1.xyz
 N    1.045250    0.350720   -0.064560
 C    1.876206    0.108231   -1.148291
 O    1.493065    0.189253   -2.316056
 N    3.155129   -0.229207   -0.857584
 C    3.753362   -0.431083    0.454268
 C    2.860631    0.158045    1.496086
 C    1.607392    0.520056    1.211364
 C   -0.322172    0.851625   -0.310612
 C   -1.146897   -0.031495   -1.265973
 O   -1.138392    0.410518   -2.596203
 C   -2.558814    0.099875   -0.709596
 O   -3.203280    1.252745   -1.214573
 C   -2.334958    0.304835    0.782408
 O   -1.001823    0.841948    0.926590
 C   -2.429351   -0.954984    1.618860
 O   -1.520729   -1.959822    1.199015
 H    3.699749   -0.424719   -1.680385
 H    4.734529    0.049808    0.475900
 H    3.913979   -1.499950    0.638732
 H    3.245106    0.307495    2.493782
 H    0.942370    0.956068    1.941529
 H   -0.265335    1.875386   -0.699047
 H   -0.801610   -1.064302   -1.167889
 H   -0.207247    0.388870   -2.858815
 H   -3.151042   -0.792873   -0.922519
 H   -2.887632    1.363485   -2.116343
 H   -3.035236    1.047830    1.169975
 H   -2.260023   -0.698437    2.670275
 H   -3.428005   -1.381263    1.524319
 H   -0.634521   -1.609061    1.325143
