30 
1ctt_ligand_ani-2x.xyz
 N    1.069226    0.381261   -0.100658
 C    1.924920    0.328691   -1.195798
 O    1.546600    0.583157   -2.338601
 N    3.214156   -0.005073   -0.934388
 C    3.790651   -0.382498    0.343533
 C    2.836291   -0.051917    1.450514
 C    1.579906    0.305323    1.203698
 C   -0.310576    0.789531   -0.330383
 C   -1.125252   -0.176809   -1.205603
 O   -1.081132    0.136299   -2.570091
 C   -2.550079    0.048981   -0.691993
 O   -3.098029    1.184017   -1.320867
 C   -2.346750    0.368682    0.787885
 O   -0.983334    0.802415    0.916227
 C   -2.542682   -0.821693    1.717745
 O   -1.631545   -1.857041    1.426596
 H    3.790929   -0.048241   -1.759293
 H    4.740898    0.152847    0.485443
 H    4.040098   -1.456676    0.353532
 H    3.183508   -0.132547    2.474273
 H    0.857768    0.566635    1.967767
 H   -0.322458    1.793415   -0.779375
 H   -0.800803   -1.211421   -1.016877
 H   -0.146360    0.336130   -2.781518
 H   -3.186627   -0.835222   -0.852109
 H   -2.690888    1.202069   -2.202949
 H   -3.003370    1.197140    1.075442
 H   -2.457703   -0.490123    2.763507
 H   -3.549167   -1.232350    1.578339
 H   -0.748494   -1.475385    1.535803
