30 
1ctt_ligand_xtb.xyz
 N    0.981801    0.430829   -0.063465
 C    1.844291    0.235343   -1.124081
 O    1.512153    0.455597   -2.279199
 N    3.082966   -0.197924   -0.814484
 C    3.558254   -0.611712    0.489884
 C    2.671980   -0.027176    1.546739
 C    1.472921    0.447685    1.236859
 C   -0.345444    0.973194   -0.372031
 C   -1.127811    0.016684   -1.309814
 O   -1.172310    0.453237   -2.632307
 C   -2.543323    0.013957   -0.705923
 O   -3.358430    0.983778   -1.297021
 C   -2.289774    0.361252    0.765788
 O   -1.092415    1.140551    0.792533
 C   -2.148051   -0.874254    1.668623
 O   -1.128013   -1.745013    1.251658
 H    3.686350   -0.350312   -1.607821
 H    4.589413   -0.261633    0.618624
 H    3.570529   -1.712837    0.562266
 H    3.039633   -0.004204    2.556928
 H    0.800104    0.883133    1.958540
 H   -0.216606    1.951549   -0.865790
 H   -0.693870   -0.991427   -1.235031
 H   -0.244789    0.535542   -2.924061
 H   -3.006285   -0.977701   -0.801418
 H   -3.015204    1.126414   -2.192466
 H   -3.095088    0.998176    1.143466
 H   -1.969397   -0.534503    2.697850
 H   -3.074546   -1.450164    1.641578
 H   -0.289343   -1.268460    1.293378
