31 
1ctu_ligand_dft.xyz
 N   -0.760321    0.175852   -0.559212
 C   -1.579668    1.228452   -0.220441
 O   -1.133692    2.355452    0.009631
 N   -2.915854    0.959093   -0.187953
 C   -3.541152   -0.351109   -0.125420
 O   -3.989871   -0.656726    1.180406
 C   -2.580040   -1.366658   -0.653417
 C   -1.281502   -1.087156   -0.798181
 C    0.671242    0.492164   -0.722949
 C    1.360901    0.843966    0.614642
 O    1.489468    2.222496    0.832592
 C    2.751866    0.228799    0.430773
 O    3.581412    1.124735   -0.265247
 C    2.469555   -0.974672   -0.469057
 O    1.331890   -0.613519   -1.262140
 C    2.207799   -2.280677    0.258050
 O    1.157729   -2.089043    1.186122
 H   -3.466317    1.740760    0.140015
 H   -4.463447   -0.314125   -0.711712
 H   -3.206603   -0.874947    1.704011
 H   -2.953092   -2.363811   -0.848816
 H   -0.547846   -1.810765   -1.122735
 H    0.741738    1.341707   -1.411581
 H    0.831737    0.341881    1.432690
 H    0.614115    2.602718    0.625523
 H    3.199663   -0.071098    1.388170
 H    3.259608    2.008681   -0.022035
 H    3.311364   -1.118268   -1.153372
 H    3.136759   -2.594543    0.758183
 H    1.945410   -3.044915   -0.487855
 H    0.960649   -2.933701    1.604773
