31 
1ctu_ligand_xtb.xyz
 N    0.983364    0.565062   -0.433866
 C    1.511016   -0.107381   -1.512849
 O    1.015894   -0.036727   -2.626265
 N    2.646073   -0.810598   -1.252641
 C    2.998826   -1.239010    0.083983
 O    2.269368   -2.386367    0.464095
 C    2.732726   -0.090034    1.011737
 C    1.704057    0.706563    0.734640
 C   -0.305171    1.229549   -0.618975
 C   -1.345739    0.211997   -1.164415
 O   -1.707885    0.456123   -2.488127
 C   -2.548289    0.394165   -0.223861
 O   -3.476411    1.307983   -0.729239
 C   -1.884619    0.952218    1.043587
 O   -0.789698    1.730922    0.585396
 C   -1.453586   -0.137126    2.034550
 O   -0.709308   -1.153695    1.386933
 H    2.982705   -1.360415   -2.029499
 H    4.046694   -1.553448    0.087065
 H    1.340814   -2.134494    0.566294
 H    3.323078    0.014919    1.902530
 H    1.369149    1.507993    1.373519
 H   -0.179801    2.064467   -1.326009
 H   -0.948549   -0.803904   -1.040388
 H   -0.899393    0.331002   -3.014968
 H   -3.040014   -0.567315   -0.023281
 H   -3.348575    1.334363   -1.689432
 H   -2.561473    1.640341    1.557474
 H   -2.358430   -0.558892    2.489451
 H   -0.845073    0.333799    2.817298
 H   -0.521551   -1.842062    2.035664
