17 
1czc_ligand_dft.xyz
 C    1.883182   -0.336062    0.150204
 C    1.476970    1.109342   -0.145554
 C    0.061593    1.437984   -0.628870
 C   -1.066789    1.074889    0.348132
 C   -1.786293   -0.217514   -0.004933
 O    1.235429   -1.332496   -0.461374
 O    2.821904   -0.567047    0.870194
 O   -1.457007   -0.958657   -0.900488
 O   -2.861257   -0.515120    0.737364
 H    2.191850    1.459827   -0.900562
 H    1.706357    1.670272    0.765310
 H   -0.141607    0.967673   -1.596768
 H    0.030849    2.516915   -0.808216
 H   -1.822987    1.869980    0.368962
 H   -0.687836    0.986832    1.375885
 H    0.406914   -1.057359   -0.897334
 H   -3.008070    0.160590    1.413279
