17 
1czc_ligand_aiqm1.xyz
 C   24.675621    9.975251  -10.796744
 C   23.275453   10.196412  -11.323548
 C   23.306100   11.030155  -12.610327
 C   24.053095   10.319193  -13.731026
 C   24.028485   11.096001  -15.030636
 O   25.126668   10.872990   -9.890927
 O   25.400774    9.096435  -11.176843
 O   23.459866   12.136715  -15.199031
 O   24.712128   10.523592  -16.049970
 H   22.650505   10.683345  -10.573596
 H   22.845672    9.219104  -11.541877
 H   23.770492   12.001378  -12.419503
 H   22.284128   11.232070  -12.930190
 H   23.605373    9.337484  -13.914071
 H   25.092446   10.135295  -13.452794
 H   24.438474   11.514523   -9.692506
 H   25.121019    9.706758  -15.750710
