51 
1d2s_ligand_ani-2x.xyz
 C    2.563383   -1.298303   -1.344173
 C    4.094219   -1.199900   -1.342403
 C    4.604974    0.217812   -1.525514
 O    5.570768    0.468652   -2.214461
 C    3.864049    1.294997   -0.757774
 C    2.340443    1.123898   -0.799006
 C    1.631760    2.221000   -0.002926
 C    0.114701    2.130419   -0.160553
 C   -0.424249    0.743562    0.208408
 C    0.326032   -0.367741   -0.577479
 C    1.873473   -0.300137   -0.386782
 C   -0.274415   -1.767906   -0.312452
 C   -1.801343   -1.829399   -0.501167
 C   -2.505785   -0.745256    0.316221
 C   -1.920705    0.620459   -0.080789
 C   -2.909205    1.634032    0.518077
 C   -4.286925    0.916133    0.441321
 C   -3.980257   -0.521678   -0.041796
 O   -4.791285   -1.525786    0.535140
 C   -2.391145   -1.041958    1.818709
 C    2.271131   -0.627978    1.061569
 H    2.190971   -1.117288   -2.362381
 H    2.284509   -2.324474   -1.082048
 H    4.492756   -1.567625   -0.386019
 H    4.536843   -1.820813   -2.127064
 H    4.158665    2.262856   -1.176531
 H    4.222542    1.280487    0.281653
 H    2.037896    1.237113   -1.853686
 H    1.908538    2.146501    1.057723
 H    1.987707    3.202471   -0.342225
 H   -0.145173    2.346335   -1.208151
 H   -0.371686    2.904347    0.446783
 H   -0.261781    0.598578    1.287450
 H    0.152945   -0.147570   -1.646397
 H    0.182451   -2.506306   -0.978942
 H   -0.032555   -2.089498    0.709117
 H   -2.046340   -1.694562   -1.565014
 H   -2.187923   -2.815533   -0.214971
 H   -2.027502    0.690302   -1.179130
 H   -2.651922    1.860980    1.560650
 H   -2.904923    2.585612   -0.025342
 H   -4.775054    0.878685    1.422643
 H   -4.981321    1.413613   -0.243179
 H   -4.064666   -0.558518   -1.141775
 H   -5.700509   -1.363349    0.255021
 H   -2.844539   -2.013012    2.035296
 H   -2.909716   -0.300474    2.434975
 H   -1.349179   -1.070117    2.149182
 H    1.762154    0.014824    1.786503
 H    3.346099   -0.512030    1.226941
 H    2.021294   -1.666456    1.307745
