83 
1d4h_ligand_aiqm1.xyz
 C    0.072444    1.754811   -1.041759
 O    0.964889    2.749955   -0.563350
 C    0.872117    0.660871   -1.776499
 O    1.666552    1.393263   -2.689595
 C    2.323131    0.545242   -3.638497
 C    3.281746    1.372736   -4.440156
 C    3.073089    1.614313   -5.797363
 C    3.982318    2.380373   -6.524729
 C    5.101630    2.916222   -5.894064
 C    5.309529    2.681728   -4.535781
 C    4.404665    1.913494   -3.810048
 C    1.728968   -0.177198   -0.806481
 O    2.891872    0.099603   -0.559492
 N    1.066905   -1.218990   -0.262930
 C    1.588562   -1.983041    0.853613
 C    1.481208   -1.279456    2.196380
 C    1.821369    0.030443    2.522294
 C    1.612486    0.472393    3.832458
 C    1.060241   -0.379024    4.789577
 C    0.741045   -1.697144    4.462050
 C    0.966521   -2.143561    3.166042
 C    0.737177   -3.519514    2.590525
 C    0.756566   -3.289152    1.064590
 O   -0.544863   -3.177291    0.514362
 C   -0.717677    1.349322    0.206147
 O   -1.163531    2.532876    0.862788
 C   -1.994558    0.542238   -0.061722
 O   -1.721683   -0.437639   -1.032218
 C   -2.894023   -1.084023   -1.551879
 C   -2.472656   -1.881800   -2.749744
 C   -2.750784   -1.439661   -4.043158
 C   -2.335363   -2.181486   -5.146812
 C   -1.629887   -3.368281   -4.963215
 C   -1.346293   -3.810957   -3.673882
 C   -1.766178   -3.073911   -2.569240
 C   -2.499892   -0.075925    1.254324
 O   -2.344328   -1.261598    1.521489
 N   -3.137827    0.791250    2.058491
 C   -3.510433    0.428004    3.418859
 C   -2.762138    1.215092    4.472519
 C   -3.351202    1.422663    5.722131
 C   -2.677004    2.117866    6.721317
 C   -1.408171    2.632213    6.476283
 C   -0.818156    2.443107    5.228374
 C   -1.487920    1.732263    4.234444
 H   -0.609883    2.198056   -1.777946
 H    1.654133    2.840798   -1.225419
 H    0.195227   -0.004488   -2.315774
 H    1.568481    0.069903   -4.280565
 H    2.861980   -0.237217   -3.098905
 H    2.197663    1.201713   -6.286886
 H    3.812422    2.561165   -7.578710
 H    5.807049    3.514135   -6.456163
 H    6.177062    3.100468   -4.041639
 H    4.558148    1.734798   -2.752578
 H    0.100580   -1.389248   -0.513338
 H    2.634572   -2.222814    0.646714
 H    2.240615    0.690904    1.772293
 H    1.879115    1.487773    4.104540
 H    0.862752   -0.010818    5.789566
 H    0.318352   -2.356306    5.211592
 H    1.543420   -4.201341    2.879590
 H   -0.207991   -3.965347    2.899499
 H    1.209323   -4.116512    0.523221
 H   -1.098928   -2.560252    1.017649
 H   -0.060445    0.794364    0.880628
 H   -0.445768    3.169231    0.801521
 H   -2.764321    1.235291   -0.428855
 H   -3.316282   -1.724181   -0.776009
 H   -3.639413   -0.322609   -1.820244
 H   -3.294210   -0.513046   -4.191507
 H   -2.559244   -1.829516   -6.145618
 H   -1.304517   -3.942416   -5.820756
 H   -0.796099   -4.730908   -3.526325
 H   -1.533061   -3.406240   -1.564866
 H   -3.033254    1.769386    1.829929
 H   -4.587338    0.576609    3.550756
 H   -3.314821   -0.641790    3.506853
 H   -4.346037    1.038044    5.917781
 H   -3.146537    2.261836    7.685862
 H   -0.883678    3.180863    7.246933
 H    0.163437    2.857077    5.030616
 H   -1.013367    1.580349    3.270116
