87 
1d4i_ligand_xtb.xyz
 C   -4.707111   -0.563978    2.716324
 C   -4.968376    0.669039    2.131018
 C   -5.783979    0.759087    1.018169
 C   -6.348177   -0.385843    0.480769
 C   -6.101409   -1.615809    1.064992
 C   -5.284703   -1.705147    2.178617
 C    4.921215   -1.849745    0.977610
 C    5.519107   -0.833602    1.709178
 C    6.249134    0.152610    1.068476
 C    6.388253    0.131200   -0.308260
 C    5.802524   -0.885216   -1.044846
 C    5.074822   -1.870531   -0.403507
 C    4.077311   -2.906073    1.646691
 O    2.692592   -2.767171    1.380000
 C   -3.771807   -0.644853    3.895816
 O   -2.420909   -0.376180    3.554142
 C    2.058290   -1.711837    2.075598
 C    0.547584   -1.953109    1.949339
 C   -0.269603   -1.070925    2.884959
 O   -0.077272    0.289878    2.555013
 C   -1.778864   -1.402904    2.817080
 C   -2.274137   -1.497296    1.363151
 O   -2.692422   -2.538782    0.900455
 N   -2.213891   -0.338233    0.688268
 C    2.453820   -0.337152    1.512387
 O    2.874274    0.566924    2.206702
 N    2.297768   -0.255361    0.181085
 C    2.558978    0.951584   -0.563526
 C    2.375617    0.770738   -2.042670
 C    1.738680    1.877496   -2.596676
 C    2.731843   -0.307219   -2.827686
 C    2.454379   -0.260474   -4.186318
 C    1.838967    0.848529   -4.743573
 C    1.568254    2.112121   -0.225244
 O    0.299540    1.615178    0.137519
 C    1.476686    1.928701   -3.951148
 C    1.409701    2.889321   -1.541898
 C   -2.542456   -0.262377   -0.713871
 C   -2.566359    1.143327   -1.239472
 C   -2.046057    1.183604   -2.531367
 C   -2.990578    2.295874   -0.611357
 C   -2.902801    3.498156   -1.298530
 C   -2.403890    3.538211   -2.589845
 C   -1.484985   -0.948684   -1.633185
 O   -0.198959   -0.836343   -1.092544
 C   -1.970897    2.378469   -3.217518
 C   -1.606121   -0.181525   -2.965882
 H   -4.524805    1.558094    2.557605
 H   -5.980677    1.720594    0.566677
 H   -6.980602   -0.316916   -0.392138
 H   -6.538489   -2.511123    0.649502
 H   -5.085736   -2.669207    2.622329
 H    5.405127   -0.804436    2.782622
 H    6.703966    0.942644    1.647041
 H    6.953607    0.903964   -0.808573
 H    5.914363   -0.906358   -2.119273
 H    4.615695   -2.669286   -0.968836
 H    4.251003   -2.896647    2.732502
 H    4.331942   -3.895517    1.254629
 H   -4.021187    0.123675    4.633890
 H   -3.842038   -1.633339    4.370037
 H    2.353344   -1.728932    3.137866
 H    0.353800   -2.999032    2.190831
 H    0.239645   -1.786778    0.915998
 H    0.062005   -1.228707    3.923377
 H   -0.626371    0.804206    3.162591
 H   -1.961304   -2.381447    3.285272
 H   -1.706915    0.439517    1.085274
 H    1.877446   -1.027255   -0.316345
 H    3.580878    1.283438   -0.332390
 H    3.212561   -1.168981   -2.393053
 H    2.719294   -1.097333   -4.815440
 H    1.632851    0.869631   -5.803848
 H    1.962669    2.735314    0.584601
 H    0.381057    1.170579    0.999976
 H    0.992525    2.791344   -4.383712
 H    2.102852    3.731411   -1.580461
 H    0.391005    3.267393   -1.634260
 H   -3.513252   -0.755410   -0.854322
 H   -3.379738    2.262473    0.394010
 H   -3.224092    4.412220   -0.821068
 H   -2.344063    4.482868   -3.110825
 H   -1.672960   -2.019228   -1.736726
 H   -0.051327    0.105771   -0.864719
 H   -1.574361    2.410013   -4.221161
 H   -2.358600   -0.644426   -3.607578
 H   -0.653592   -0.168668   -3.496938
