87 
1d4i_ligand_ani-2x.xyz
 C   -4.886652   -0.657145    2.556881
 C   -5.017475    0.724768    2.707401
 C   -5.883460    1.445333    1.892977
 C   -6.607782    0.794198    0.896019
 C   -6.458499   -0.577464    0.716131
 C   -5.600635   -1.298811    1.543521
 C    5.119620   -1.617546    1.027083
 C    5.735073   -0.364888    0.981769
 C    6.400852    0.053651   -0.167838
 C    6.449234   -0.773408   -1.285909
 C    5.817039   -2.015326   -1.255993
 C    5.145656   -2.425736   -0.110501
 C    4.417771   -2.120519    2.274122
 O    3.051394   -2.431597    2.030762
 C   -3.978527   -1.424193    3.495947
 O   -2.634280   -0.955138    3.445263
 C    2.132063   -1.427031    2.443448
 C    0.734316   -1.972621    2.172689
 C   -0.355932   -1.209317    2.915134
 O   -0.328359    0.181401    2.589763
 C   -1.757080   -1.773042    2.673683
 C   -2.231911   -1.843690    1.209048
 O   -2.651961   -2.895326    0.748668
 N   -2.240452   -0.667022    0.528809
 C    2.470918   -0.084922    1.767179
 O    2.949708    0.835666    2.417736
 N    2.300363   -0.029366    0.421095
 C    2.473212    1.221606   -0.277454
 C    2.403751    1.067422   -1.782118
 C    1.708352    2.133107   -2.352947
 C    2.910628    0.037111   -2.565424
 C    2.750033    0.110275   -3.947935
 C    2.076072    1.186449   -4.527171
 C    1.357100    2.279338    0.018685
 O    0.115312    1.628058    0.245542
 C    1.544931    2.200376   -3.731727
 C    1.229420    3.090353   -1.283228
 C   -2.402292   -0.648198   -0.905943
 C   -2.593481    0.751548   -1.457768
 C   -1.931259    0.888984   -2.679078
 C   -3.293056    1.812051   -0.895944
 C   -3.337629    3.020613   -1.588245
 C   -2.686409    3.160469   -2.813732
 C   -1.164688   -1.178600   -1.712539
 O    0.042447   -0.906663   -1.039265
 C   -1.975369    2.096149   -3.365745
 C   -1.228924   -0.400984   -3.045559
 H   -4.438888    1.234580    3.473588
 H   -5.987210    2.520838    2.029430
 H   -7.280073    1.361514    0.256967
 H   -7.016935   -1.087545   -0.065613
 H   -5.468648   -2.368306    1.392188
 H    5.675307    0.293121    1.846135
 H    6.892468    1.024159   -0.188674
 H    6.971904   -0.451997   -2.183680
 H    5.839049   -2.661182   -2.132647
 H    4.636320   -3.386210   -0.091264
 H    4.514704   -1.385798    3.087393
 H    4.879391   -3.059000    2.612263
 H   -4.305513   -1.290372    4.536849
 H   -4.020905   -2.498855    3.266645
 H    2.254119   -1.236891    3.520059
 H    0.731934   -3.005814    2.531961
 H    0.532538   -2.012607    1.096719
 H   -0.168453   -1.311581    3.994499
 H   -0.993661    0.592860    3.166260
 H   -1.794662   -2.807950    3.036466
 H   -1.738165    0.111132    0.934982
 H    1.770613   -0.745040   -0.068084
 H    3.440188    1.647136    0.024747
 H    3.434018   -0.805087   -2.115793
 H    3.140273   -0.681460   -4.582825
 H    1.961910    1.231227   -5.608799
 H    1.628096    2.897939    0.884798
 H    0.140573    1.230773    1.138823
 H    1.018176    3.032056   -4.194237
 H    1.863979    3.981941   -1.242483
 H    0.196239    3.409874   -1.441701
 H   -3.266112   -1.281075   -1.146902
 H   -3.793849    1.707998    0.065357
 H   -3.880328    3.863792   -1.167744
 H   -2.732944    4.110290   -3.342732
 H   -1.239578   -2.262710   -1.861437
 H    0.033533    0.049633   -0.815855
 H   -1.474925    2.214076   -4.325022
 H   -1.810125   -0.967063   -3.783214
 H   -0.232413   -0.228969   -3.465318
