14 
1d6n_ligand_aiqm1.xyz
 O   45.719015   50.974271    3.609421
 C   44.942755   50.048809    3.599862
 C   43.849007   49.713733    4.478057
 N   43.411015   50.437377    5.619400
 N   42.425111   49.845770    6.144411
 C   42.089825   48.630200    5.389215
 C   43.085319   48.605911    4.286754
 N   43.229070   47.685681    3.283600
 C   44.211147   47.971445    2.481057
 N   45.025563   49.049077    2.589507
 H   41.058459   48.714203    5.048871
 H   42.161018   47.778831    6.065024
 H   44.418104   47.310943    1.648328
 H   45.763892   49.186049    1.914393
