14 
1d6n_ligand_ani-2x.xyz
 O   45.718820   50.973594    3.608988
 C   44.941690   50.044557    3.597187
 C   43.850811   49.720215    4.482125
 N   43.415316   50.432323    5.610052
 N   42.440552   49.857022    6.137950
 C   42.091718   48.624589    5.381995
 C   43.083682   48.603773    4.286645
 N   43.227612   47.691676    3.290760
 C   44.203377   47.965100    2.483670
 N   45.023782   49.051563    2.593699
 H   41.051183   48.708745    5.049088
 H   42.155620   47.771798    6.067044
 H   44.415998   47.305162    1.645215
 H   45.769140   49.202183    1.923483
