55 
1d6v_ligand_xtb.xyz
 C   -8.503616    0.695372   -0.104354
 C   -7.553239    1.590509    0.356240
 C   -8.098996   -0.522161   -0.621857
 C   -6.753016   -0.839188   -0.677215
 C   -5.789915    0.049876   -0.218148
 C   -6.209284    1.269993    0.299227
 C   -4.327186   -0.307497   -0.291145
 C   -3.687360   -0.320414    1.099286
 C   -2.215249   -0.717697    1.025257
 C   -1.448701    0.246374    0.097011
 C   -2.093607    0.255405   -1.292450
 C   -3.561673    0.657488   -1.203514
 C    0.010315   -0.123568    0.040565
 C    0.973951    0.740544    0.549397
 C    2.316732    0.408451    0.536334
 C    2.727430   -0.809409    0.004247
 C    1.769142   -1.669239   -0.525846
 C    0.430218   -1.336204   -0.499520
 O   -1.701534   -0.685631    2.340099
 C    4.154904   -1.237168   -0.068269
 O    4.567687   -1.963854   -0.954561
 N    4.940077   -0.810450    0.949394
 C    6.357821   -1.074484    0.982177
 C    7.193626    0.153009    0.606728
 C    6.850005    0.656787   -0.793520
 C    5.587270    1.478623   -0.808748
 O    5.085282    2.018554    0.143954
 O    5.076693    1.578022   -2.037412
 H   -9.553226    0.945852   -0.059444
 H   -7.861037    2.543246    0.762364
 H   -8.832737   -1.227875   -0.983514
 H   -6.446271   -1.793203   -1.083076
 H   -5.481992    1.979981    0.664137
 H   -4.239916   -1.314991   -0.714617
 H   -4.209036   -1.023829    1.749967
 H   -3.750728    0.665277    1.561134
 H   -2.134801   -1.741472    0.622580
 H   -1.536778    1.249203    0.529896
 H   -1.552256    0.952984   -1.935448
 H   -2.017118   -0.737081   -1.740294
 H   -4.009123    0.649570   -2.199799
 H   -3.639407    1.672964   -0.811472
 H    0.668769    1.691986    0.961757
 H    3.036814    1.122984    0.907722
 H    2.099008   -2.602741   -0.956076
 H   -0.293225   -2.026417   -0.907201
 H   -0.754342   -0.862286    2.304911
 H    4.583664   -0.128318    1.599288
 H    6.634090   -1.416967    1.984416
 H    6.536254   -1.881222    0.266300
 H    7.011151    0.955390    1.325021
 H    8.247892   -0.120178    0.653422
 H    7.647031    1.300174   -1.174388
 H    6.724664   -0.170403   -1.493601
 H    4.265644    2.110440   -2.035153
