14 
1d7j_ligand_aiqm1.xyz
 C   60.879593   -6.084059   -1.896313
 C   60.344893   -5.629557   -0.558215
 O   59.823574   -6.399318    0.216002
 C   60.509441   -4.161401   -0.194943
 C   60.338582   -3.201217   -1.353887
 O   59.034102   -3.405030   -1.888445
 H   61.918543   -5.769415   -2.020634
 H   60.802015   -7.165896   -1.964912
 H   60.295635   -5.618532   -2.691371
 H   61.517138   -4.033822    0.216732
 H   59.791981   -3.945278    0.596597
 H   61.100367   -3.380301   -2.120039
 H   60.454544   -2.173557   -0.996596
 H   58.894791   -2.784317   -2.604878
