14 
1d7j_ligand_ani-2x.xyz
 C   60.984808   -6.053227   -1.869741
 C   60.596796   -5.569597   -0.489436
 O   60.312515   -6.345127    0.396815
 C   60.578410   -4.068678   -0.229886
 C   60.132534   -3.224902   -1.411387
 O   58.865449   -3.702271   -1.832893
 H   61.149453   -7.130978   -1.838415
 H   60.172851   -5.822475   -2.567054
 H   61.886401   -5.546127   -2.231549
 H   61.591321   -3.765140    0.073099
 H   59.918455   -3.906147    0.628249
 H   60.872080   -3.297698   -2.223390
 H   60.078709   -2.170934   -1.102019
 H   58.565416   -3.148398   -2.563295
