53 
1dbb_ligand_xtb.xyz
 C   -3.069410    1.579351    0.360290
 C   -4.581275    1.494349    0.522919
 C   -5.181975    0.565318   -0.506136
 O   -6.276205    0.746570   -0.997126
 C   -4.359005   -0.601022   -0.814774
 C   -3.117043   -0.804656   -0.359743
 C   -2.419607   -2.101499   -0.624639
 C   -1.024985   -1.874915   -1.200580
 C   -0.205935   -0.997697   -0.258931
 C   -0.914742    0.353449   -0.059435
 C   -2.369533    0.211748    0.474889
 C   -0.062931    1.291000    0.807182
 C    1.347588    1.497060    0.245028
 C    2.054089    0.154090    0.078493
 C    1.178730   -0.720006   -0.836314
 C    2.085352   -1.901664   -1.172318
 C    3.478742   -1.258260   -1.301328
 C    3.364059    0.182733   -0.757291
 C    2.342588   -0.472653    1.444152
 C   -2.405734   -0.269209    1.936031
 C    4.583346    0.599248    0.038728
 O    5.271639   -0.183861    0.644228
 C    4.890690    2.075103   -0.003036
 H   -2.854720    2.004044   -0.623815
 H   -2.673609    2.262000    1.113325
 H   -4.840058    1.103580    1.510374
 H   -5.037922    2.481126    0.429360
 H   -4.841060   -1.349647   -1.429879
 H   -2.327153   -2.646774    0.319327
 H   -3.015436   -2.713460   -1.303570
 H   -0.529979   -2.836095   -1.344467
 H   -1.109629   -1.388848   -2.175331
 H   -0.105804   -1.519021    0.696058
 H   -0.997934    0.809411   -1.055020
 H   -0.544246    2.267237    0.872445
 H    0.015456    0.891199    1.816894
 H    1.900715    2.149222    0.924611
 H    1.278247    1.998913   -0.724010
 H    1.028243   -0.152945   -1.764153
 H    1.788345   -2.397274   -2.095218
 H    2.063767   -2.639574   -0.370681
 H    4.223497   -1.805149   -0.723446
 H    3.811983   -1.241818   -2.338628
 H    3.227989    0.891361   -1.579276
 H    2.835571    0.256372    2.085044
 H    3.005656   -1.326195    1.349773
 H    1.434932   -0.797710    1.942304
 H   -3.412924   -0.582494    2.201810
 H   -2.108707    0.529279    2.610701
 H   -1.743193   -1.116002    2.088553
 H    5.618879    2.330173    0.762502
 H    5.313380    2.309763   -0.979077
 H    3.987469    2.665148    0.122803
