51 
1dbj_ligand_aiqm1.xyz
 C    2.552442   -1.224959    0.924744
 C    3.158256   -1.420432   -0.463259
 C    3.820847   -0.132881   -0.932680
 O    4.310577   -0.239878   -2.269847
 C    2.820019    1.004803   -0.921837
 C    2.176114    1.203485    0.458776
 C    1.192305    2.378356    0.434089
 C   -0.058789    2.056683   -0.381030
 C   -0.746573    0.785043    0.117235
 C    0.241696   -0.409359    0.145009
 C    1.505200   -0.089619    0.995216
 C   -0.450056   -1.725181    0.565995
 C   -1.710115   -2.041181   -0.255709
 C   -2.656591   -0.843789   -0.223789
 C   -1.920228    0.385094   -0.767118
 C   -3.037945    1.385172   -1.096110
 C   -4.133713    0.484555   -1.703372
 C   -3.848841   -0.923116   -1.172290
 O   -4.462907   -1.916609   -1.472046
 C   -3.260345   -0.661966    1.186378
 C    1.158133    0.087298    2.490555
 H    2.125480   -2.159007    1.297207
 H    3.361025   -0.964670    1.619128
 H    3.893044   -2.232343   -0.446228
 H    2.388415   -1.700014   -1.189930
 H    4.657468    0.101777   -0.257508
 H    4.966364   -0.939873   -2.290953
 H    2.063466    0.793208   -1.683236
 H    3.325184    1.926363   -1.228551
 H    2.989052    1.452233    1.154935
 H    0.903052    2.637630    1.457791
 H    1.687939    3.262643    0.021954
 H    0.206450    1.925566   -1.436291
 H   -0.751443    2.903673   -0.339222
 H   -1.115580    0.967274    1.134372
 H    0.580743   -0.546131   -0.891447
 H    0.250829   -2.557505    0.469090
 H   -0.717182   -1.671504    1.626238
 H   -2.214997   -2.930904    0.128627
 H   -1.432768   -2.255225   -1.293987
 H   -1.482635    0.073548   -1.733920
 H   -2.717071    2.163258   -1.788287
 H   -3.389151    1.879245   -0.186376
 H   -5.149843    0.786649   -1.446199
 H   -4.072690    0.455169   -2.793120
 H   -2.494426   -0.623519    1.960431
 H   -3.861024    0.247981    1.265543
 H   -3.906833   -1.516111    1.409765
 H    0.343006    0.788860    2.671328
 H    0.877896   -0.866962    2.942837
 H    2.036743    0.457071    3.028401
