51 
1dbj_ligand_ani-2x.xyz
 C    2.573638   -1.231657    0.905480
 C    3.186071   -1.422933   -0.481558
 C    3.839949   -0.129579   -0.962671
 O    4.317174   -0.236223   -2.294796
 C    2.839445    1.013805   -0.930186
 C    2.192511    1.203973    0.452428
 C    1.205589    2.382236    0.443253
 C   -0.070477    2.064220   -0.342753
 C   -0.755937    0.783006    0.146573
 C    0.235863   -0.414961    0.171411
 C    1.523794   -0.097623    0.995001
 C   -0.462639   -1.725665    0.599062
 C   -1.725665   -2.040606   -0.223358
 C   -2.683513   -0.852996   -0.208621
 C   -1.935499    0.385017   -0.737985
 C   -3.048035    1.377256   -1.092620
 C   -4.122966    0.479570   -1.746432
 C   -3.834593   -0.930251   -1.213619
 O   -4.434272   -1.935886   -1.513316
 C   -3.319503   -0.658674    1.177271
 C    1.191599    0.088431    2.485570
 H    2.143887   -2.170142    1.272407
 H    3.382002   -0.979383    1.607084
 H    3.928554   -2.232045   -0.458927
 H    2.417808   -1.721163   -1.207394
 H    4.674598    0.114805   -0.282132
 H    4.964133   -0.952784   -2.316831
 H    2.074336    0.820096   -1.690560
 H    3.348129    1.936555   -1.235962
 H    3.011584    1.439528    1.151506
 H    0.943491    2.652623    1.474522
 H    1.697792    3.264882    0.015145
 H    0.176562    1.962118   -1.409483
 H   -0.763482    2.912595   -0.272738
 H   -1.121079    0.971343    1.167206
 H    0.545891   -0.563685   -0.878171
 H    0.230347   -2.567346    0.504621
 H   -0.734625   -1.672847    1.661009
 H   -2.234296   -2.930707    0.165065
 H   -1.446722   -2.268034   -1.261653
 H   -1.500408    0.076518   -1.704395
 H   -2.706152    2.171416   -1.765646
 H   -3.438015    1.866183   -0.190774
 H   -5.152689    0.778019   -1.515929
 H   -4.034488    0.452948   -2.838727
 H   -2.568974   -0.488212    1.954853
 H   -4.015143    0.187343    1.191206
 H   -3.890114   -1.554834    1.447783
 H    0.420945    0.844471    2.660207
 H    0.845368   -0.848972    2.934588
 H    2.088224    0.398148    3.035281
