49 
1dbk_ligand_dft.xyz
 C    2.688642   -1.472576    0.632331
 C    3.126033   -1.565161   -0.834110
 C    3.772861   -0.267502   -1.274394
 O    4.836831   -0.228863   -1.853803
 C    2.985073    0.982430   -0.935638
 C    2.470474    1.023253    0.520312
 C    1.591794    2.262721    0.742411
 C    0.230710    2.142858    0.054958
 C   -0.504277    0.856424    0.441504
 C    0.386041   -0.393409    0.199702
 C    1.748990   -0.287279    0.949542
 C   -0.364281   -1.716305    0.458754
 C   -1.718261   -1.810614   -0.264515
 C   -2.571264   -0.586155    0.050337
 C   -1.797573    0.683327   -0.345950
 C   -2.859133    1.793922   -0.354320
 C   -4.085036    1.089399   -0.969969
 C   -3.845046   -0.415519   -0.771803
 O   -4.547312   -1.301007   -1.197767
 C   -3.039398   -0.598380    1.522613
 C    1.552651   -0.288227    2.477156
 H    2.231125   -2.417537    0.943081
 H    3.588749   -1.359248    1.252144
 H    3.836871   -2.380569   -0.990249
 H    2.256146   -1.754529   -1.478595
 H    2.141787    1.022422   -1.638695
 H    3.614935    1.852570   -1.142538
 H    3.357541    1.119633    1.162714
 H    1.439548    2.412442    1.818075
 H    2.118144    3.154080    0.380229
 H   -0.386038    3.012621    0.310777
 H    0.353733    2.169046   -1.037335
 H   -0.755595    0.922345    1.508796
 H    0.604343   -0.382030   -0.879886
 H   -0.518653   -1.855641    1.535068
 H    0.256923   -2.557058    0.131862
 H   -1.553652   -1.861788   -1.348899
 H   -2.237788   -2.732986    0.016699
 H   -1.502638    0.537766   -1.400550
 H   -3.067695    2.142561    0.663810
 H   -2.545432    2.665452   -0.935368
 H   -5.042467    1.379044   -0.526250
 H   -4.167791    1.275957   -2.046516
 H   -3.667410    0.264273    1.768757
 H   -3.631148   -1.501661    1.702570
 H   -2.198172   -0.599914    2.220767
 H    0.851176    0.475360    2.822428
 H    2.509946   -0.105271    2.978632
 H    1.183354   -1.257619    2.827502
