49 
1dbk_ligand_ani-2x.xyz
 C    2.713283    0.268005   -1.581581
 C    3.146108    1.638901   -1.056286
 C    3.775753    1.517065    0.315948
 O    4.817416    2.063815    0.609615
 C    2.987751    0.687896    1.306388
 C    2.501163   -0.657828    0.735677
 C    1.628161   -1.391727    1.764577
 C    0.251539   -0.739845    1.934975
 C   -0.488393   -0.561773    0.603744
 C    0.395618    0.176915   -0.441261
 C    1.777371   -0.519959   -0.636358
 C   -0.366695    0.417037   -1.763936
 C   -1.725122    1.114537   -1.566412
 C   -2.573220    0.354899   -0.550490
 C   -1.777656    0.240851    0.763458
 C   -2.830946   -0.126461    1.813852
 C   -4.036023    0.760434    1.426474
 C   -3.817724    1.094526   -0.055320
 O   -4.525872    1.802118   -0.732486
 C   -3.054927   -0.992227   -1.113030
 C    1.606515   -1.918958   -1.252893
 H    2.250135    0.367786   -2.569162
 H    3.611245   -0.345997   -1.732114
 H    3.863376    2.125462   -1.722940
 H    2.274523    2.302787   -0.967976
 H    2.128866    1.290803    1.628713
 H    3.614977    0.528526    2.188972
 H    3.401719   -1.258760    0.541745
 H    1.503412   -2.439938    1.463745
 H    2.152038   -1.413167    2.728378
 H   -0.353748   -1.343423    2.623713
 H    0.369934    0.240360    2.418869
 H   -0.735974   -1.564161    0.223909
 H    0.587373    1.176728   -0.013830
 H   -0.530109   -0.538946   -2.277808
 H    0.240548    1.025188   -2.441688
 H   -1.567724    2.142296   -1.210538
 H   -2.267423    1.192795   -2.515947
 H   -1.465953    1.270560    1.010329
 H   -3.089252   -1.191362    1.752786
 H   -2.489269    0.062429    2.837602
 H   -5.009725    0.278683    1.575955
 H   -4.056070    1.702762    1.986181
 H   -3.673044   -1.537349   -0.391484
 H   -3.669809   -0.818813   -2.003944
 H   -2.221770   -1.641376   -1.398343
 H    0.931251   -2.560019   -0.679680
 H    2.577802   -2.424874   -1.304762
 H    1.218569   -1.857302   -2.275437
