49 
1dbk_ligand_aiqm1.xyz
 C    2.691610    0.271250   -1.578945
 C    3.117453    1.642507   -1.042360
 C    3.810432    1.433095    0.282689
 O    4.958796    1.758340    0.489545
 C    2.959302    0.705958    1.295296
 C    2.483242   -0.653133    0.740100
 C    1.608409   -1.378135    1.769028
 C    0.256844   -0.690899    1.953183
 C   -0.483146   -0.530158    0.624276
 C    0.396096    0.201650   -0.422551
 C    1.761337   -0.513695   -0.626355
 C   -0.361833    0.443858   -1.746863
 C   -1.719557    1.137721   -1.552601
 C   -2.551597    0.360715   -0.535738
 C   -1.770346    0.268961    0.778975
 C   -2.824486   -0.127476    1.822737
 C   -4.051444    0.709476    1.403749
 C   -3.833082    1.047366   -0.073665
 O   -4.550918    1.749688   -0.740615
 C   -2.995488   -0.999833   -1.117149
 C    1.587579   -1.913173   -1.256626
 H    2.227104    0.374358   -2.561635
 H    3.589945   -0.338760   -1.730960
 H    3.798288    2.146783   -1.726760
 H    2.240808    2.279538   -0.896401
 H    2.098192    1.334129    1.540092
 H    3.539543    0.563882    2.209078
 H    3.383790   -1.256635    0.564689
 H    1.449476   -2.412804    1.450079
 H    2.136059   -1.429607    2.725865
 H   -0.352246   -1.265299    2.657635
 H    0.396133    0.299348    2.403835
 H   -0.730133   -1.528796    0.243971
 H    0.617261    1.192592    0.004080
 H   -0.517824   -0.513457   -2.253559
 H    0.249998    1.049261   -2.419460
 H   -1.566375    2.160357   -1.189308
 H   -2.257969    1.214491   -2.499944
 H   -1.461698    1.303596    1.021105
 H   -3.035601   -1.198334    1.764999
 H   -2.509791    0.089616    2.843197
 H   -5.004258    0.195468    1.535937
 H   -4.110852    1.646025    1.961686
 H   -3.508494   -1.618629   -0.376416
 H   -3.685043   -0.823667   -1.948127
 H   -2.156902   -1.575515   -1.508131
 H    0.865663   -2.541834   -0.734862
 H    2.548900   -2.435373   -1.249320
 H    1.266824   -1.834918   -2.297577
