32 
1dgm_ligand_ani-2x.xyz
 O   -2.492530    1.300867    1.190949
 C   -3.343047    1.399151    0.066290
 C   -2.867620    0.414253   -0.985967
 O   -1.562991    0.806212   -1.427351
 C   -2.738762   -1.030883   -0.495125
 O   -3.024875   -1.887176   -1.579372
 C   -1.262144   -1.130328   -0.123985
 O   -0.810873   -2.451808   -0.244137
 C   -0.614501   -0.198005   -1.152702
 N    0.598199    0.429272   -0.656702
 C    0.920598    1.775436   -0.621966
 N    2.123830    2.019013   -0.185799
 C    2.639841    0.761350    0.086263
 C    3.882104    0.319295    0.575300
 N    4.862417    1.192105    0.878491
 N    4.096007   -0.996202    0.743068
 C    3.107539   -1.834799    0.439398
 N    1.884714   -1.545713   -0.024174
 C    1.712254   -0.231981   -0.192824
 H   -2.653962    2.054680    1.769939
 H   -4.385589    1.157109    0.329184
 H   -3.325407    2.407613   -0.370775
 H   -3.543597    0.447797   -1.847843
 H   -3.394040   -1.248377    0.362970
 H   -2.456473   -2.664572   -1.464140
 H   -1.092017   -0.724930    0.880387
 H    0.163686   -2.436826   -0.146748
 H   -0.382696   -0.758271   -2.069372
 H    0.194111    2.512328   -0.938505
 H    5.743805    0.850645    1.225098
 H    4.704732    2.179287    0.752601
 H    3.317187   -2.886444    0.595350
