32 
1dgm_ligand_xtb.xyz
 O   -2.053401    1.208794    1.163722
 C   -3.032542    1.408718    0.167484
 C   -2.832352    0.394279   -0.963573
 O   -1.639750    0.672701   -1.690258
 C   -2.704905   -1.050872   -0.461358
 O   -3.202875   -1.942575   -1.416915
 C   -1.187281   -1.200665   -0.282650
 O   -0.779928   -2.519670   -0.476037
 C   -0.631794   -0.228857   -1.353965
 N    0.538400    0.448267   -0.845809
 C    0.839880    1.778846   -0.815263
 N    1.990338    2.045813   -0.275855
 C    2.504681    0.825083    0.083523
 C    3.696359    0.403190    0.699412
 N    4.655233    1.254569    1.095751
 N    3.875306   -0.906139    0.904965
 C    2.936256   -1.755543    0.530984
 N    1.779481   -1.495299   -0.053976
 C    1.596148   -0.186673   -0.267351
 H   -2.136258    1.902776    1.826617
 H   -4.041345    1.278555    0.582351
 H   -2.949071    2.415002   -0.262027
 H   -3.664681    0.477343   -1.669013
 H   -3.230951   -1.184641    0.493253
 H   -2.625975   -2.720666   -1.397722
 H   -0.903355   -0.828976    0.710421
 H    0.190743   -2.531851   -0.344880
 H   -0.334025   -0.797921   -2.252532
 H    0.166727    2.510928   -1.212786
 H    5.496395    0.888982    1.503816
 H    4.544307    2.235793    0.917605
 H    3.140137   -2.799189    0.729864
