55 
1dhi_ligand_xtb.xyz
 N   -6.267790   -1.331070   -1.182427
 C   -7.500175   -1.181311   -0.735402
 N   -8.416703   -2.080047   -1.139409
 N   -7.954857   -0.226813    0.108429
 C   -7.086234    0.652660    0.554058
 N   -7.481276    1.615432    1.399438
 C   -5.709267    0.596693    0.147540
 N   -4.815503    1.484369    0.598515
 C   -3.579944    1.359892    0.156743
 C   -3.232644    0.327288   -0.739348
 N   -4.086181   -0.556292   -1.181811
 C   -5.360759   -0.448211   -0.751119
 C   -2.548618    2.334481    0.668878
 N   -1.421454    1.657498    1.275882
 C   -1.785258    0.839468    2.409805
 C    2.081043    0.754636   -0.870057
 C    1.595857   -0.115056    0.102566
 C    0.434079    0.168293    0.789501
 C   -0.299411    1.336600    0.538140
 C    0.193877    2.202862   -0.449447
 C    1.347653    1.910709   -1.136885
 C    3.307691    0.513464   -1.664119
 O    3.518604    1.051608   -2.737689
 N    4.222372   -0.313933   -1.092779
 C    5.391448   -0.748201   -1.809177
 C    5.412386   -2.266105   -1.932089
 O    4.186565   -2.779858   -1.981100
 O    6.409669   -2.936322   -2.001855
 C    6.703326   -0.228173   -1.199747
 C    6.740569   -0.373054    0.330196
 C    6.452893   -1.800087    0.717969
 O    7.559358   -2.502619    0.923768
 O    5.346171   -2.272099    0.818975
 H   -8.148825   -2.752825   -1.833818
 H   -9.379272   -1.936637   -0.897158
 H   -6.800657    2.289874    1.700904
 H   -8.445295    1.679917    1.670740
 H   -2.214038    0.229555   -1.095554
 H   -2.208230    2.956947   -0.158441
 H   -3.023368    2.981759    1.414141
 H   -0.919242    0.705485    3.057047
 H   -2.176524   -0.145275    2.125020
 H   -2.558286    1.361147    2.973467
 H    2.097845   -1.048465    0.313128
 H    0.083057   -0.547072    1.515133
 H   -0.318439    3.125792   -0.673303
 H    1.715055    2.582907   -1.897608
 H    4.012056   -0.814118   -0.242311
 H    5.287711   -0.342835   -2.828239
 H    4.221639   -3.746126   -2.059122
 H    7.525499   -0.792342   -1.642088
 H    6.820596    0.826105   -1.448695
 H    5.983981    0.274512    0.774829
 H    7.728608   -0.096722    0.695346
 H    7.359142   -3.438783    1.082834
