55 
1dhi_ligand_aiqm1.xyz
 N   -5.998220   -0.919989   -1.703721
 C   -7.223341   -0.955070   -1.205471
 N   -8.091359   -1.829188   -1.781847
 N   -7.738858   -0.250757   -0.160186
 C   -6.899435    0.551364    0.456803
 N   -7.321037    1.294220    1.494960
 C   -5.527855    0.669319    0.038721
 N   -4.700841    1.494182    0.713368
 C   -3.460794    1.562231    0.265070
 C   -3.059955    0.791149   -0.859771
 N   -3.858487   -0.022886   -1.522268
 C   -5.133251   -0.097222   -1.067747
 C   -2.481521    2.466229    0.992994
 N   -1.406231    1.743753    1.657952
 C   -1.878995    0.862519    2.710753
 C    1.893234    0.471296   -0.664803
 C    1.356074   -0.358935    0.316820
 C    0.259487    0.039902    1.073960
 C   -0.336110    1.298684    0.874866
 C    0.212289    2.129589   -0.121784
 C    1.298088    1.715214   -0.875538
 C    3.057273    0.110069   -1.521274
 O    3.325788    0.725255   -2.546119
 N    3.825799   -0.925488   -1.097250
 C    4.970353   -1.347310   -1.865647
 C    5.348854   -2.785221   -1.547409
 O    4.310809   -3.501656   -1.087188
 O    6.443662   -3.252866   -1.724639
 C    6.179086   -0.398955   -1.755317
 C    6.526821    0.036044   -0.324263
 C    6.773944   -1.163207    0.545728
 O    8.077561   -1.444332    0.691285
 O    5.901425   -1.848626    1.027165
 H   -7.829353   -2.186177   -2.682778
 H   -9.066203   -1.684307   -1.592569
 H   -6.653143    1.863960    1.982616
 H   -8.260494    1.183061    1.828044
 H   -2.035778    0.859428   -1.212445
 H   -2.066204    3.186162    0.291105
 H   -3.040871    3.018502    1.753209
 H   -1.054618    0.588944    3.368045
 H   -2.349020   -0.053725    2.326814
 H   -2.618060    1.401253    3.301582
 H    1.760867   -1.349841    0.486026
 H   -0.130713   -0.635621    1.819853
 H   -0.207175    3.108639   -0.304458
 H    1.705058    2.352048   -1.648323
 H    3.659300   -1.369772   -0.213405
 H    4.672230   -1.350043   -2.919486
 H    4.652734   -4.391180   -0.930325
 H    7.039110   -0.881364   -2.218015
 H    5.937447    0.493244   -2.326295
 H    5.692884    0.597744    0.099883
 H    7.414871    0.663853   -0.336342
 H    8.133373   -2.274617    1.181260
