37 
1di8_ligand_aiqm1.xyz
 N   -9.250161   52.108001   13.414740
 C  -10.160875   52.698795   12.604500
 N  -10.749665   52.203033   11.544010
 C  -10.393133   50.925135   11.221045
 C   -9.461157   50.194698   11.973129
 C   -8.905861   50.873364   13.102648
 C  -10.993138   50.331565   10.086018
 C  -10.674944   49.053113    9.713446
 C   -9.723259   48.300370   10.477136
 C   -9.134405   48.863431   11.579127
 N   -7.988133   50.209833   13.877410
 C   -7.280452   50.601866   15.029532
 C   -6.415761   49.640777   15.560062
 C   -5.668921   49.923305   16.695473
 C   -5.769059   51.162773   17.320621
 C   -6.633162   52.109106   16.781938
 C   -7.394229   51.855148   15.645529
 O   -4.846675   48.929727   17.151649
 O  -11.188655   48.398627    8.652399
 C  -12.136338   49.107994    7.867614
 O   -9.491783   47.051668   10.010767
 C   -8.558748   46.264681   10.729474
 H  -10.428178   53.711201   12.879925
 H  -11.703422   50.931937    9.539484
 H   -8.418908   48.285404   12.145991
 H   -7.782247   49.278304   13.574103
 H   -6.308825   48.662091   15.102352
 H   -5.186353   51.382803   18.206289
 H   -6.714571   53.074054   17.264272
 H   -8.056874   52.601791   15.245486
 H   -4.389367   49.245727   17.933514
 H  -13.011877   49.382049    8.459630
 H  -11.695037   50.008408    7.435583
 H  -12.430772   48.429512    7.074078
 H   -7.570036   46.729880   10.734726
 H   -8.887529   46.103243   11.758953
 H   -8.509189   45.313583   10.211343
