37 
1di8_ligand_dft.xyz
 N    0.745923   -2.188980   -0.000010
 C   -0.276473   -3.069266   -0.000062
 N   -1.559375   -2.818416   -0.000065
 C   -1.896550   -1.494555   -0.000042
 C   -0.933482   -0.466834    0.000006
 C    0.436765   -0.904663   -0.000019
 C   -3.274247   -1.160527   -0.000014
 C   -3.681027    0.148745    0.000026
 C   -2.702262    1.198725    0.000069
 C   -1.366657    0.886859    0.000094
 N    1.433455    0.033889    0.000030
 C    2.833348   -0.088996    0.000005
 C    3.546238    1.115106    0.000053
 C    4.935477    1.111839    0.000036
 C    5.635659   -0.094400   -0.000014
 C    4.915660   -1.283166   -0.000034
 C    3.525608   -1.305877   -0.000048
 O    5.555003    2.323918    0.000067
 O   -4.958526    0.572171    0.000136
 C   -5.971156   -0.412124    0.000019
 O   -3.217998    2.446820    0.000154
 C   -2.317599    3.529988   -0.000318
 H    0.019789   -4.116346    0.000016
 H   -3.976082   -1.984975   -0.000001
 H   -0.649664    1.699082    0.000217
 H    1.120455    0.990252   -0.000019
 H    3.034224    2.073819    0.000110
 H    6.722993   -0.102769   -0.000022
 H    5.453131   -2.226866   -0.000075
 H    2.978019   -2.235586   -0.000073
 H    6.509636    2.186973    0.000129
 H   -5.911626   -1.043980   -0.894722
 H   -5.911775   -1.044080    0.894693
 H   -6.915591    0.132237   -0.000030
 H   -1.682623    3.524228    0.895590
 H   -1.682739    3.523533   -0.896298
 H   -2.931818    4.430629   -0.000613
