31 
1dzj_ligand_aiqm1.xyz
 C   23.898616   34.769325   57.034902
 C   24.978768   33.699186   56.913851
 C   25.919387   33.921446   55.730838
 C   26.795865   35.171778   55.868871
 C   31.099753   35.343688   56.564663
 C   30.973439   34.001347   55.854627
 C   29.516796   33.662136   55.533432
 N   27.357589   36.141609   53.687434
 C   28.180168   36.187047   52.713380
 N   27.976654   36.881360   51.563080
Se   29.739868   35.076670   52.926834
 C   28.903988   34.638454   54.579022
 C   27.729725   35.305148   54.705010
 H   23.224086   34.555843   57.865360
 H   24.329290   35.757182   57.203484
 H   23.302541   34.820835   56.122013
 H   25.563876   33.659768   57.838999
 H   24.503794   32.720749   56.807897
 H   26.572438   33.052463   55.613113
 H   25.335246   33.999437   54.808360
 H   26.186321   36.077673   55.909953
 H   27.380268   35.114319   56.794819
 H   30.561629   35.331218   57.514766
 H   32.141038   35.593927   56.766533
 H   30.671183   36.139643   55.951431
 H   31.547422   34.021509   54.921624
 H   31.405711   33.209863   56.471582
 H   29.439333   32.654275   55.107929
 H   28.915603   33.674067   56.449725
 H   27.241652   37.570464   51.600692
 H   28.789952   37.133571   51.024779
