31 
1dzj_ligand_xtb.xyz
 C   24.010831   34.876520   57.126976
 C   24.993051   33.734318   56.895726
 C   25.892425   33.951469   55.679381
 C   26.868760   35.119703   55.855446
 C   30.866633   35.363438   56.712744
 C   30.981177   34.093743   55.880703
 C   29.610413   33.588658   55.418826
 N   27.377169   36.072402   53.664872
 C   28.164553   36.115207   52.662689
 N   27.926318   36.814849   51.522469
Se   29.723804   34.994869   52.820678
 C   28.941013   34.555332   54.499904
 C   27.777061   35.232552   54.670174
 H   23.337227   34.635096   57.946422
 H   24.532541   35.796112   57.378346
 H   23.415640   35.051096   56.233413
 H   25.613837   33.603240   57.785617
 H   24.430254   32.809329   56.747987
 H   26.467160   33.040022   55.495276
 H   25.276847   34.137870   54.797310
 H   26.314094   36.054161   55.933843
 H   27.451198   34.979694   56.767688
 H   30.289029   35.177746   57.616123
 H   31.851693   35.721679   57.002202
 H   30.368255   36.144640   56.142257
 H   31.595764   34.291569   54.996196
 H   31.473391   33.312622   56.464090
 H   29.740403   32.631789   54.902812
 H   28.971294   33.415900   56.286218
 H   27.198591   37.509587   51.587428
 H   28.721575   37.060786   50.955183
