26 
1dzk_ligand_xtb.xyz
 N   -0.040508   24.775052   11.176865
 C   -0.335990   26.001290   11.553589
 C    0.695078   26.965764   11.668925
 N    1.957316   26.667190   11.416672
 C    2.229083   25.417173   11.046261
 C    1.232134   24.473964   10.922109
 C   -1.758228   26.337926   11.863306
 C   -1.994116   26.495058   13.375422
 C   -3.421237   26.972418   13.628685
 C   -1.735593   25.177026   14.098938
 O    0.374047   28.214966   12.035421
 C    1.446940   29.135148   12.111333
 H    3.269777   25.201250   10.850136
 H    1.428535   23.456872   10.615732
 H   -2.392102   25.539428   11.476043
 H   -2.012203   27.277723   11.368549
 H   -1.299028   27.252173   13.752775
 H   -3.600414   27.928184   13.141602
 H   -4.136873   26.249218   13.243227
 H   -3.596837   27.093239   14.695253
 H   -2.418073   24.409705   13.740300
 H   -0.718671   24.832939   13.925785
 H   -1.881241   25.295882   15.170459
 H    2.185292   28.805196   12.845337
 H    1.939111   29.233485   11.141380
 H    1.007001   30.083130   12.413194
