26 
1dzk_ligand_ani-2x.xyz
 N   -0.054755   24.742126   11.182053
 C   -0.320880   25.984696   11.549634
 C    0.732228   26.926760   11.639452
 N    1.986816   26.637869   11.368551
 C    2.230649   25.369962   10.995349
 C    1.223297   24.433938   10.901690
 C   -1.733682   26.374238   11.885307
 C   -1.994083   26.517424   13.394172
 C   -3.429844   26.987661   13.628087
 C   -1.725581   25.209791   14.138284
 O    0.386718   28.171314   12.018546
 C    1.434075   29.131620   12.110262
 H    3.261863   25.112699   10.767836
 H    1.426654   23.410369   10.596988
 H   -2.389783   25.601696   11.468830
 H   -1.972172   27.326727   11.397881
 H   -1.310180   27.285881   13.774392
 H   -3.623989   27.942797   13.126393
 H   -4.147282   26.252406   13.239884
 H   -3.634207   27.121290   14.696602
 H   -2.341270   24.398176   13.727930
 H   -0.677382   24.903854   14.056903
 H   -1.967569   25.310656   15.202603
 H    2.185527   28.816843   12.840726
 H    1.925979   29.263615   11.141977
 H    0.952053   30.056991   12.426968
