34 
1e02_ligand_xtb.xyz
 C    0.085448   27.439182    9.757934
 C    1.063365   26.286848    9.958703
 C    1.627403   26.215582   11.378847
 C    2.618351   27.338317   11.685702
 C    3.216415   27.260177   13.096542
 C    2.505870   28.088954   14.171331
 C    1.104050   27.604149   14.566190
 C   -0.012891   28.341843   13.826967
 C   -1.393522   27.721146   14.042154
 C   -1.867479   27.804192   15.494879
 C   -3.302992   27.396079   15.631664
 O   -3.740772   26.645563   16.456691
 H   -0.740158   27.364995   10.463287
 H    0.575604   28.399407    9.897994
 H   -0.324125   27.415050    8.750567
 H    1.886933   26.381400    9.247147
 H    0.546236   25.349177    9.741103
 H    2.144382   25.260028   11.500764
 H    0.799829   26.233885   12.087538
 H    2.145562   28.311640   11.550520
 H    3.429709   27.271863   10.956141
 H    4.248256   27.617890   13.052368
 H    3.252802   26.216212   13.415885
 H    2.448610   29.129258   13.843123
 H    3.142058   28.068198   15.059577
 H    0.970448   27.757212   15.638669
 H    1.025376   26.531657   14.379967
 H    0.196744   28.340221   12.757772
 H   -0.031144   29.383963   14.156061
 H   -1.373415   26.673445   13.733083
 H   -2.115342   28.240906   13.406115
 H   -1.798255   28.843319   15.832150
 H   -1.253992   27.185692   16.150030
 H   -3.968864   27.866350   14.878435
