25 
1e06_ligand_ani-2x.xyz
 C   -0.264031   26.548629   12.436824
 C   -0.772598   25.371543   12.982412
 C   -2.030678   25.313335   13.571478
 C   -2.837270   26.450012   13.640325
 C   -2.342975   27.635533   13.102488
 C   -1.083031   27.682638   12.509272
 C    1.075588   26.641484   11.729159
 C   -4.202263   26.395864   14.279303
 O   -0.591263   28.847341   11.984304
 C    2.055788   25.549508   12.157363
 C    0.896114   26.624868   10.204181
 H   -0.167326   24.469049   12.960139
 H   -2.388176   24.373976   13.985648
 H   -2.948078   28.542547   13.142018
 H    1.508336   27.612307   11.999692
 H   -4.851503   25.674987   13.768515
 H   -4.137188   26.085801   15.328939
 H   -4.696987   27.371170   14.249029
 H   -1.256720   29.538415   12.089161
 H    1.723625   24.559535   11.822203
 H    3.040934   25.730855   11.714014
 H    2.172266   25.522902   13.246363
 H    1.867006   26.723943    9.706197
 H    0.439029   25.682240    9.880521
 H    0.254999   27.446219    9.874452
