25 
1e06_ligand_aiqm1.xyz
 C   -0.266290   26.551375   12.429332
 C   -0.768442   25.377476   12.991460
 C   -2.027945   25.319542   13.586582
 C   -2.838419   26.450917   13.641567
 C   -2.348279   27.634173   13.091472
 C   -1.091493   27.680003   12.497017
 C    1.077449   26.642167   11.735840
 C   -4.199562   26.397817   14.278281
 O   -0.604072   28.844253   11.955944
 C    2.044758   25.535914   12.152469
 C    0.899750   26.635093   10.211971
 H   -0.162577   24.481816   12.971431
 H   -2.376196   24.384943   14.008690
 H   -2.959202   28.534076   13.125026
 H    1.518540   27.603203   12.018871
 H   -4.836831   25.669094   13.773286
 H   -4.128116   26.094143   15.324630
 H   -4.691558   27.370679   14.236454
 H   -1.244720   29.544792   12.096118
 H    1.714464   24.562270   11.781051
 H    3.030574   25.728154   11.725746
 H    2.148869   25.471612   13.236928
 H    1.864622   26.756938    9.713822
 H    0.469115   25.683010    9.888042
 H    0.239161   27.441239    9.891970
