35 
1e1x_ligand_aiqm1.xyz
 N    2.182484   28.377841    7.283867
 C    1.415616   28.540520    8.347224
 O    1.253487   27.529175    9.184771
 C    1.941120   26.305383    8.866703
 C    1.606449   25.295202    9.946275
 C    0.123316   24.924784    9.941748
 C   -0.184885   23.887859   11.020511
 C    0.680580   22.642022   10.845112
 C    2.162436   23.009759   10.855291
 C    2.469269   24.044069    9.775416
 C    0.745883   29.758418    8.643744
 N   -0.033810   29.812466    9.782191
 O   -0.607354   30.897632   10.009447
 C    0.959864   30.818545    7.699495
 N    0.382200   32.010309    7.872825
 N    1.737808   30.655898    6.619986
 C    2.298856   29.455052    6.477063
 N    3.081556   29.289378    5.395395
 H    3.015594   26.502162    8.815205
 H    1.616740   25.958602    7.881854
 H    1.844405   25.752846   10.913403
 H   -0.131808   24.509862    8.958629
 H   -0.489050   25.818150   10.081096
 H   -1.243634   23.623021   10.995966
 H    0.010883   24.325189   12.004711
 H    0.436776   22.167616    9.888366
 H    0.464375   21.911476   11.627277
 H    2.780606   22.121854   10.707857
 H    2.424411   23.421833   11.835320
 H    3.530505   24.310354    9.792280
 H    2.263246   23.604927    8.791481
 H   -0.205841   32.128177    8.688437
 H    0.557820   32.723995    7.188246
 H    3.521780   28.403437    5.236886
 H    3.200615   30.051587    4.756421
