34 
1e2k_ligand_dft.xyz
 O    2.788544    2.317740    0.286270
 O    3.550661   -0.965275   -1.605057
 O    0.114584    1.531643   -0.397127
 O   -4.421203    1.422711   -0.230295
 N   -0.873545   -0.495026    0.059268
 N   -2.146859    1.414341   -0.289737
 C    2.586806   -0.097859    0.498991
 C    2.430988   -0.340629   -0.999497
 C    1.222069   -1.279154   -1.153276
 C    0.409317   -1.223926    0.160182
 C    1.355746   -0.627190    1.186730
 C    2.676916   -1.334183    1.343794
 C    3.268681    1.173945    0.947823
 C   -0.888816    0.857976   -0.219031
 C   -3.388935    0.788286   -0.133701
 C   -3.287532   -0.642174    0.143187
 C   -2.059976   -1.188867    0.221442
 C   -4.560240   -1.411577    0.324929
 H    1.824698    2.230485    0.217103
 H    4.258729   -0.311892   -1.646902
 H   -2.164802    2.406233   -0.491934
 H    2.230151    0.622897   -1.477436
 H    0.606827   -1.027293   -2.020143
 H    1.602728   -2.293309   -1.309082
 H    0.114308   -2.233765    0.458509
 H    0.926526   -0.125197    2.049765
 H    3.163367   -1.244712    2.311286
 H    2.840174   -2.289058    0.850128
 H    3.168931    1.263003    2.043658
 H    4.343495    1.117878    0.733278
 H   -1.932404   -2.246843    0.424430
 H   -5.187088   -1.335986   -0.569239
 H   -5.142739   -1.001797    1.156111
 H   -4.360918   -2.468301    0.523978
