34 
1e2k_ligand_ani-2x.xyz
 O   -3.089380   -1.035433    1.882632
 O   -3.266639   -0.846559   -1.875867
 O   -0.288316   -1.263813    1.466103
 O    4.171026   -1.988123    1.731098
 N    1.049566   -0.138515   -0.034460
 N    1.944999   -1.579186    1.544175
 C   -2.410731    0.418806    0.060888
 C   -2.239350   -0.749922   -0.900289
 C   -0.903695   -0.494399   -1.617412
 C   -0.078370    0.482940   -0.743248
 C   -1.088306    1.133500    0.186203
 C   -2.246270    1.796606   -0.500506
 C   -3.292624    0.209813    1.265782
 C    0.817259   -1.005688    1.015201
 C    3.271185   -1.404343    1.156532
 C    3.435260   -0.481070    0.032059
 C    2.336202    0.085968   -0.492780
 C    4.826477   -0.233188   -0.458075
 H   -2.129777   -1.141287    1.992190
 H   -4.094465   -1.003934   -1.403438
 H    1.781731   -2.211001    2.317014
 H   -2.183690   -1.675874   -0.309401
 H   -0.358457   -1.418735   -1.826378
 H   -1.138388   -0.022120   -2.574797
 H    0.383462    1.247722   -1.376879
 H   -0.758546    1.526183    1.144531
 H   -2.741873    2.613051    0.020939
 H   -2.224608    1.920865   -1.582300
 H   -3.130201    1.043638    1.971712
 H   -4.351336    0.243665    0.972147
 H    2.407868    0.774925   -1.330760
 H    5.296942   -1.168532   -0.778477
 H    5.454137    0.168547    0.344110
 H    4.838309    0.470495   -1.297949
