34 
1e2l_ligand_xtb.xyz
 O   -3.098298   -1.071518    1.887303
 O   -3.254236   -0.706928   -1.906254
 O   -0.287263   -1.261479    1.421982
 O    4.158882   -1.947239    1.761519
 N    1.047255   -0.148138   -0.067446
 N    1.942982   -1.554972    1.539839
 C   -2.386072    0.416834    0.096177
 C   -2.257658   -0.726849   -0.905873
 C   -0.892818   -0.535298   -1.591416
 C   -0.071793    0.477649   -0.770106
 C   -1.065383    1.127260    0.172597
 C   -2.238169    1.790240   -0.489126
 C   -3.271109    0.190633    1.304874
 C    0.814620   -1.002455    0.987159
 C    3.272300   -1.378482    1.167631
 C    3.425581   -0.471957    0.037599
 C    2.324893    0.078610   -0.506398
 C    4.810673   -0.206565   -0.453915
 H   -2.146153   -1.235034    1.969814
 H   -4.107401   -0.859605   -1.487113
 H    1.776053   -2.182138    2.320022
 H   -2.290849   -1.679454   -0.360633
 H   -0.362257   -1.480938   -1.686953
 H   -1.083228   -0.152744   -2.593568
 H    0.376631    1.229191   -1.427637
 H   -0.681626    1.526883    1.100225
 H   -2.708977    2.609648    0.032746
 H   -2.242818    1.890208   -1.563227
 H   -3.079787    0.990150    2.038730
 H   -4.327303    0.247105    1.014744
 H    2.406189    0.753311   -1.347253
 H    5.282602   -1.143292   -0.745362
 H    5.410691    0.217684    0.349380
 H    4.803246    0.474680   -1.299761
