25 
1e6s_ligand_dft.xyz
 C    0.889107    1.022009    0.145004
 N    1.666968    2.029032   -0.021211
 O    0.924095    3.201746   -0.231399
 C    1.574754   -0.301795    0.409595
 O    2.898959   -0.327140   -0.058768
 C    0.791510   -1.422650   -0.256491
 O    1.304297   -2.691526    0.088746
 C   -0.659760   -1.387364    0.199693
 O   -1.396245   -2.438841   -0.376893
 C   -1.295832   -0.068358   -0.230649
 N   -0.474716    1.055081    0.213075
 C   -2.694984    0.100651    0.334299
 O   -3.182524    1.339298   -0.150795
 H    1.609402    3.867869   -0.352577
 H    1.557379   -0.478420    1.497515
 H    3.166271    0.599239   -0.172412
 H    0.826948   -1.275557   -1.347958
 H    2.239176   -2.694205   -0.156109
 H   -0.676512   -1.458339    1.300893
 H   -0.841648   -3.227274   -0.292601
 H   -1.376788   -0.082169   -1.328121
 H   -0.884786    1.961028    0.020963
 H   -3.316428   -0.741486    0.004715
 H   -2.638900    0.094877    1.433241
 H   -4.027290    1.522385    0.273561
