63 
1eb2_ligand_ani-2x.xyz
 C    6.178436    0.372221   -0.662091
 C   -4.744459    0.144830    2.130395
 N   -7.646988    2.891808   -0.912493
 C   -6.736070    1.493941    2.326799
 C   -1.112601   -0.659417   -0.122301
 C    0.090248   -0.494091    0.821151
 C   -4.514647    0.676362    0.860351
 C   -5.417715    1.584534    0.317587
 C   -6.526981    2.008532    1.045589
 C   -0.760917   -3.188551    0.009087
 C   -1.223859   -2.074964   -0.690720
 C   -7.477966    3.003395    0.456628
 C   -3.355186    0.294738   -0.005621
 C   -0.875272   -4.463314   -0.542274
 C    3.227862    1.089138    0.576265
 C    2.480164   -0.127486    1.113321
 C   -1.957587   -3.529597   -2.479656
 C   -1.465889   -4.635608   -1.790394
 C   -1.845908   -2.257368   -1.927761
 C    3.622267    0.920516   -0.904909
 C    4.797887   -0.045732   -1.090124
 C    2.406698    0.492631   -1.737151
 C   -5.856791    0.555321    2.858668
 O   -0.082877   -0.439235    2.031921
 O   -3.370296    0.510045   -1.214195
 N   -2.296783   -0.282271    0.617980
 N   -8.075052    3.930879    1.097932
 N    1.332375   -0.416446    0.262704
 O    4.632957   -1.144265   -1.587421
 C    1.672167   -0.697902   -1.125274
 C    6.484914    1.656564   -0.205972
 C    7.787441    1.978892    0.164873
 C    8.793570    1.020480    0.085333
 C    8.494482   -0.260779   -0.372534
 C    7.196198   -0.582240   -0.748043
 H   -4.080241   -0.608829    2.549657
 H   -7.599389    1.955278   -1.287108
 H   -8.424607    3.437176   -1.259759
 H   -7.610135    1.804734    2.896426
 H   -1.021556    0.031175   -0.970074
 H   -5.230195    1.961873   -0.683584
 H   -0.312184   -3.064393    0.993474
 H   -0.500607   -5.323447    0.005977
 H    4.115005    1.283145    1.189338
 H    2.572338    1.963525    0.665041
 H    3.139311   -1.006727    1.148292
 H    2.102965    0.048269    2.122221
 H   -2.427953   -3.658634   -3.451342
 H   -1.551760   -5.629957   -2.221780
 H   -2.259988   -1.396890   -2.447760
 H    3.969183    1.893566   -1.280833
 H    2.716479    0.248657   -2.757847
 H    1.713249    1.341160   -1.796138
 H   -6.030794    0.149432    3.851933
 H   -2.169845   -0.241311    1.621159
 H   -7.814397    3.911518    2.082720
 H    0.767326   -0.932519   -1.688061
 H    2.320693   -1.579032   -1.162114
 H    5.714278    2.420589   -0.132242
 H    8.012797    2.981871    0.517921
 H    9.810010    1.270802    0.377028
 H    9.277796   -1.011901   -0.439588
 H    6.948298   -1.574189   -1.114907
