63 
1eb2_ligand_xtb.xyz
 C    5.953419    0.389191   -0.702446
 C   -4.667135   -0.036097    1.987091
 N   -7.507851    3.218951   -0.567194
 C   -6.552409    1.390328    2.407411
 C   -1.070902   -0.629511   -0.328934
 C    0.135772   -0.317102    0.560710
 C   -4.454077    0.604570    0.770404
 C   -5.310934    1.622505    0.370529
 C   -6.361195    2.027588    1.184659
 C   -0.701474   -3.073877    0.168577
 C   -1.117616   -2.092052   -0.721392
 C   -7.261580    3.138302    0.770922
 C   -3.357728    0.214527   -0.163343
 C   -0.786029   -4.410128   -0.180302
 C    3.153863    1.193153    0.214128
 C    2.523937   -0.075425    0.786526
 C   -1.724600   -3.799887   -2.299347
 C   -1.294416   -4.775001   -1.415398
 C   -1.637550   -2.462773   -1.954788
 C    3.523761    0.983217   -1.261595
 C    4.694569    0.017280   -1.397976
 C    2.297070    0.493604   -2.038682
 C   -5.716896    0.359038    2.797627
 O   -0.032229   -0.004086    1.730050
 O   -3.456547    0.333445   -1.372484
 N   -2.255507   -0.289186    0.430425
 N   -7.759470    4.021365    1.539528
 N    1.354427   -0.436126    0.011388
 O    4.612130   -1.014776   -2.026167
 C    1.665753   -0.729610   -1.368250
 C    6.344520    1.705038   -0.460180
 C    7.539602    1.966952    0.183946
 C    8.354276    0.926159    0.600366
 C    7.978673   -0.384880    0.356556
 C    6.791270   -0.650191   -0.297041
 H   -4.033956   -0.856322    2.291369
 H   -7.408807    2.394702   -1.133303
 H   -8.203758    3.892036   -0.841416
 H   -7.374428    1.690415    3.042357
 H   -1.069596   -0.001457   -1.229453
 H   -5.129820    2.105018   -0.578585
 H   -0.311467   -2.790509    1.135574
 H   -0.456709   -5.168156    0.515085
 H    4.033324    1.459376    0.801143
 H    2.430861    2.008322    0.288237
 H    3.241178   -0.902709    0.751937
 H    2.206057    0.084623    1.818160
 H   -2.131108   -4.080927   -3.259507
 H   -1.360318   -5.818416   -1.686113
 H   -1.988570   -1.699944   -2.633884
 H    3.848436    1.939225   -1.687341
 H    2.589851    0.224428   -3.053921
 H    1.561548    1.299218   -2.088897
 H   -5.887254   -0.142479    3.738936
 H   -2.096025   -0.200667    1.426861
 H   -7.468788    3.945267    2.508459
 H    0.774765   -1.039762   -1.909083
 H    2.379479   -1.559067   -1.390350
 H    5.734541    2.530452   -0.794473
 H    7.838679    2.989450    0.360861
 H    9.283616    1.138339    1.107478
 H    8.614248   -1.198533    0.672289
 H    6.487022   -1.665925   -0.502044
