88 
1eby_ligand_aiqm1.xyz
 C   -1.418375   -1.711701    2.699285
 C   -1.807984   -0.405657    2.392726
 C   -3.050311   -0.159496    1.808665
 C   -3.915076   -1.213246    1.528028
 C   -3.530199   -2.516010    1.830183
 C   -2.290569   -2.765373    2.412053
 C   -3.377003   -1.713658   -1.817159
 C   -3.854380   -0.400808   -1.811021
 C   -5.189543   -0.122499   -1.532774
 C   -6.073297   -1.168357   -1.263443
 C   -5.604161   -2.482851   -1.264739
 C   -4.261302   -2.751967   -1.537104
 C   -1.922989   -1.969338   -2.106314
 O   -1.155689   -1.226006   -1.161611
 C    0.109306   -0.798747   -1.618129
 C    1.206377   -1.818621   -1.323905
 C    1.024420   -2.647188   -0.048079
 C    1.167290   -1.845059    1.240710
 C    2.629558   -1.425168    1.420539
 O    3.501735   -2.250297    1.661434
 N    2.880537   -0.110818    1.243542
 O    0.774235   -2.688600    2.308012
 C   -0.049988   -2.006336    3.260578
 O    1.933079   -3.733198   -0.120233
 O    1.176212   -2.701453   -2.435649
 C    0.360964    0.623921   -1.101724
 O    1.472568    1.148143   -1.173715
 N   -0.730966    1.259701   -0.676332
 C   -0.749655    2.694384   -0.412713
 C   -2.169516    3.187067   -0.528834
 C   -2.701753    3.488109    0.725372
 C   -2.953461    3.268270   -1.673986
 C   -4.296261    3.640169   -1.551354
 C   -4.833420    3.918599   -0.294784
 C   -0.346356    3.111445    1.037034
 O    0.481160    2.186614    1.705696
 C   -4.038173    3.851621    0.850286
 C   -1.665018    3.308872    1.806453
 C    4.225032    0.413161    1.108500
 C    4.894748    0.156303   -0.229855
 C    5.598586    1.292452   -0.640619
 C    4.887280   -0.994187   -1.014158
 C    5.581511   -0.984525   -2.226783
 C    6.270283    0.151717   -2.641010
 C    4.247244    1.960114    1.208529
 O    3.049535    2.544469    0.687020
 C    6.288128    1.299495   -1.846392
 C    5.474040    2.392101    0.384797
 H   -1.120226    0.411060    2.591038
 H   -3.340658    0.856637    1.551724
 H   -4.871300   -1.024998    1.057917
 H   -4.188300   -3.342720    1.589290
 H   -1.981864   -3.782468    2.626222
 H   -3.163724    0.414492   -2.005176
 H   -5.526893    0.910537   -1.513098
 H   -7.111517   -0.960282   -1.035059
 H   -6.280013   -3.299689   -1.040866
 H   -3.895667   -3.772623   -1.523658
 H   -1.668423   -1.636608   -3.117623
 H   -1.669399   -3.029764   -2.022803
 H    0.097166   -0.689310   -2.708740
 H    2.162662   -1.287012   -1.294944
 H    0.017269   -3.066703   -0.043864
 H    0.530591   -0.966916    1.166470
 H    2.128077    0.472523    0.915378
 H    0.452548   -1.085665    3.579576
 H   -0.116226   -2.687555    4.107248
 H    2.631763   -3.594537    0.534504
 H    1.672040   -3.483586   -2.174533
 H   -1.564358    0.696323   -0.566412
 H   -0.071197    3.150770   -1.136926
 H   -2.528695    3.044141   -2.646388
 H   -4.922920    3.708446   -2.431667
 H   -5.876327    4.191584   -0.204408
 H    0.150963    4.077662    0.940375
 H    1.399874    2.369582    1.455716
 H   -4.463317    4.070310    1.821963
 H   -1.880926    2.434255    2.418779
 H   -1.603509    4.160611    2.485222
 H    4.832075   -0.020487    1.907034
 H    4.358205   -1.882215   -0.689799
 H    5.581096   -1.868970   -2.850229
 H    6.797625    0.146199   -3.586337
 H    4.282537    2.295982    2.240262
 H    2.829167    2.187057   -0.186220
 H    6.827583    2.181956   -2.171260
 H    6.359311    2.433131    1.027303
 H    5.323047    3.379818   -0.051157
