56 
1eef_ligand_xtb.xyz
 C   -3.255734    0.368023    0.332797
 C   -4.674490    0.559929    0.889633
 C   -5.415473   -0.786358    0.833741
 C   -5.421854   -1.266044   -0.627393
 C   -3.975573   -1.329583   -1.147527
 C   -3.904941   -1.656813   -2.645820
 O   -2.585634   -0.527065    1.176935
 O   -4.611662    1.066756    2.191164
 O   -6.715430   -0.650427    1.339562
 O   -6.238434   -0.370969   -1.343842
 O   -3.307925   -0.081767   -0.992563
 O   -4.477020   -0.635971   -3.426169
 C   -1.234826   -0.663223    1.054543
 C   -0.483345   -0.153195    0.008141
 C    0.892703   -0.365162   -0.029025
 C    1.521082   -1.089595    0.986958
 C    0.753489   -1.600308    2.034997
 C   -0.604607   -1.394931    2.069716
 C    1.653773    0.222370   -1.146814
 O    1.159961    0.906161   -2.028460
 N    2.988253   -0.054019   -1.140273
 N    3.587232   -0.802698   -0.140390
 C    2.971432   -1.310643    0.964015
 O    3.617881   -1.902876    1.806639
 C    3.873946    0.586968   -2.085439
 C    4.350516    1.955617   -1.565386
 C    4.954749    1.812016   -0.196829
 C    4.180613    2.022707    0.937898
 C    6.267843    1.382225   -0.044499
 C    4.704562    1.800186    2.198712
 C    6.794517    1.164104    1.216472
 C    6.011654    1.366984    2.340203
 H   -2.732599    1.333711    0.297627
 H   -5.197097    1.269846    0.225383
 H   -4.899503   -1.506477    1.476559
 H   -5.849966   -2.281851   -0.676395
 H   -3.443738   -2.107955   -0.581158
 H   -4.469827   -2.567423   -2.855654
 H   -2.855787   -1.811769   -2.924372
 H   -5.413139    0.773583    2.647390
 H   -7.246134   -0.237861    0.643398
 H   -5.965520   -0.393452   -2.277329
 H   -3.983503    0.174578   -3.242188
 H   -0.928167    0.400060   -0.803862
 H    1.257839   -2.155431    2.810830
 H   -1.211475   -1.780771    2.873006
 H    4.596903   -0.865138   -0.185370
 H    4.723070   -0.076040   -2.269639
 H    3.308222    0.720749   -3.010041
 H    5.078321    2.357853   -2.271332
 H    3.491181    2.626009   -1.528767
 H    3.157740    2.356438    0.830078
 H    6.880883    1.220290   -0.920849
 H    4.089624    1.960344    3.071418
 H    7.816357    0.830560    1.321488
 H    6.419157    1.187547    3.323182
