36 
1efi_ligand_ani-2x.xyz
 C   -0.533805   -0.125880    1.179529
 C   -1.629228   -1.083680    1.614489
 C   -2.249400   -1.766906    0.398117
 C   -2.781991   -0.701807   -0.551478
 C   -1.657757    0.283383   -0.895017
 C   -2.144865    1.476770   -1.701562
 C    1.705519   -0.263868    0.341768
 C    1.924964    1.110911    0.375100
 C    3.191783    1.615683    0.100071
 C    4.259656    0.771381   -0.211906
 C    4.022124   -0.607808   -0.242973
 C    2.764358   -1.118362    0.029173
 N    5.511754    1.289358   -0.544775
 O    0.496968   -0.874362    0.581989
 O   -1.097745   -2.038448    2.497348
 O   -3.270428   -2.644180    0.829584
 O   -3.866901   -0.091851    0.122426
 O   -1.057282    0.832375    0.291167
 O   -3.062508    2.272719   -0.960047
 H   -0.127316    0.409843    2.045886
 H   -2.420211   -0.489056    2.099958
 H   -1.492035   -2.376065   -0.103943
 H   -3.136251   -1.177681   -1.482555
 H   -0.896656   -0.253905   -1.476100
 H   -1.286655    2.078753   -2.026073
 H   -2.681868    1.131147   -2.590259
 H    1.122987    1.802536    0.608524
 H    3.355429    2.691851    0.126191
 H    4.838266   -1.284407   -0.489995
 H    2.589589   -2.190470    0.006043
 H    5.705677    2.204723   -0.163452
 H    6.285672    0.656403   -0.398642
 H   -1.762717   -2.742244    2.524051
 H   -4.037308   -2.080627    1.020553
 H   -3.976621    0.806429   -0.240906
 H   -2.605197    2.477142   -0.129484
