33 
1efy_ligand_aiqm1.xyz
 C   40.671178   22.660675   21.789118
 N   39.984812   22.835207   20.592624
 C   38.747917   22.478821   20.845249
 N   38.567947   22.083067   22.145063
 C   39.794059   22.177769   22.776187
 C   40.200544   21.900727   24.080485
 C   42.021587   22.888496   22.110829
 C   37.652258   22.486234   19.872084
 C   42.425955   22.611441   23.409475
 C   41.536315   22.125066   24.379442
 C   43.052262   23.416531   21.154046
 N   42.619275   23.671830   19.899154
 O   44.207589   23.593944   21.508201
 C   37.963120   22.554563   18.507677
 C   36.323802   22.425732   20.292189
 C   36.938009   22.547281   17.567067
 O   37.128651   22.601057   16.223187
 C   35.603929   22.479169   17.987854
 C   35.306831   22.425850   19.341324
 C   38.467702   22.672270   15.760512
 H   37.721927   21.698432   22.521447
 H   39.510068   21.529019   24.827291
 H   43.462580   22.786257   23.654818
 H   41.897903   21.923068   25.379434
 H   41.651530   23.545634   19.651607
 H   43.279879   24.059461   19.252062
 H   39.000194   22.614283   18.219890
 H   36.076459   22.411424   21.345148
 H   34.823298   22.475714   17.239466
 H   34.272742   22.385622   19.657442
 H   38.405354   22.693632   14.677272
 H   38.959031   23.579672   16.116819
 H   39.041290   21.799054   16.077534
