66 
1ekb_ligand_ani-2x.xyz
 N    4.054954   -1.264418   -3.280330
 C    4.180372   -0.407637   -2.089830
 C    3.042758   -0.751481   -1.110538
 O    2.012080   -1.295504   -1.512058
 C    4.126044    1.072015   -2.508137
 C    4.663082    2.020672   -1.467453
 O    4.686775    3.284274   -1.910665
 O    5.052446    1.720957   -0.356405
 N    3.252345   -0.439644    0.181935
 C    2.254859   -0.716962    1.202704
 C    1.155324    0.357913    1.223332
 O    1.039770    1.134942    2.157671
 C    2.888833   -0.804707    2.578295
 C    1.874909   -1.214639    3.618772
 O    2.274203   -0.918778    4.862756
 O    0.825625   -1.778351    3.390617
 N    0.328327    0.368717    0.138783
 C   -0.846803    1.144451    0.161932
 C   -2.035003    0.609913   -0.131344
 O   -2.176261   -0.698219   -0.540488
 C    1.176003    0.271023   -4.532745
 C    2.067282    0.549669   -5.501727
 O    1.714782    1.288634   -6.567344
 O    3.340460    0.162459   -5.549121
 N   -3.203431    1.319854   -0.042242
 C   -4.525387    0.712807   -0.005098
 C   -5.530675    1.850796    0.116131
 O   -5.121121    2.678776    1.195021
 C   -4.696711   -0.374134    1.084975
 C   -4.067819   -0.059465    2.446057
 C   -3.895519   -1.283958    3.350354
 C   -3.099737   -2.439072    2.728899
 N   -1.896396   -1.995576    2.010835
 H    3.553618   -0.402915   -4.747717
 H    3.330214   -1.963156   -3.117264
 H    4.921787   -1.761946   -3.465260
 H    5.139356   -0.581958   -1.590628
 H    4.719494    1.213426   -3.418365
 H    3.101971    1.370307   -2.767899
 H    5.052625    3.825140   -1.190047
 H    4.011595    0.200829    0.394057
 H    1.788254   -1.675039    0.946483
 H    3.323973    0.153604    2.875327
 H    3.687835   -1.555249    2.573791
 H    1.566474   -1.221616    5.455750
 H    0.478532   -0.313552   -0.601772
 H   -0.751908    2.153235    0.564321
 H    0.162557    0.643126   -4.610607
 H    1.462464   -0.324132   -3.667645
 H    2.490578    1.358915   -7.142713
 H   -3.165223    2.247957    0.367923
 H   -4.696205    0.218530   -0.966310
 H   -6.538619    1.443307    0.288004
 H   -5.551554    2.415783   -0.828640
 H   -5.740619    3.414798    1.263135
 H   -5.769978   -0.581672    1.200872
 H   -4.259534   -1.291491    0.677179
 H   -4.659624    0.704730    2.961070
 H   -3.075910    0.378210    2.286442
 H   -3.393854   -0.962982    4.274044
 H   -4.873230   -1.678627    3.660214
 H   -3.736788   -2.967903    2.009320
 H   -2.858746   -3.166614    3.517711
 H   -1.358634   -1.337962    2.573346
 H   -1.269927   -2.788906    1.887865
 H   -2.006441   -1.271509    0.258869
