20 
1enu_ligand_aiqm1.xyz
 N   15.866448   17.015830   23.864689
 C   15.363421   16.788255   22.617727
 O   14.202420   16.436089   22.467817
 C   16.327570   17.003242   21.527175
 C   15.924960   16.800585   20.204763
 C   16.814258   16.996826   19.163807
 C   18.137997   17.403351   19.418857
 C   18.543484   17.606964   20.743915
 C   17.644022   17.407618   21.783430
 C   18.111714   17.633318   23.173169
 O   19.240305   17.986749   23.479631
 N   17.165871   17.415830   24.124306
 N   19.016983   17.597187   18.386049
 H   15.249562   16.883657   24.646545
 H   14.907618   16.488675   20.015252
 H   16.492810   16.837260   18.141258
 H   19.553283   17.919269   20.974098
 H   17.432776   17.555836   25.082963
 H   18.733080   17.452325   17.438280
 H   19.958719   17.885033   18.563169
