16 
1eoc_ligand_dft.xyz
 C   -1.794742   -0.562046    0.000058
 C   -1.293079    0.753118   -0.000108
 C    0.067239    0.984713   -0.000078
 C    0.926484   -0.113429    0.000109
 C    0.457705   -1.418201    0.000203
 C   -0.914362   -1.637921    0.000209
 O   -3.123467   -0.777910    0.000067
 O   -2.251130    1.725673   -0.000501
 N    2.365333    0.131947   -0.000009
 O    2.744357    1.295842    0.000629
 O    3.110097   -0.836967   -0.000716
 H    0.479581    1.987814   -0.000191
 H    1.160938   -2.241109    0.000267
 H   -1.321974   -2.642466    0.000369
 H   -3.568101    0.082902    0.000298
 H   -1.842097    2.598718    0.001131
