84 
1evh_ligand_xtb.xyz
 C   -4.970055    1.019192    1.233631
 O   -5.715379    1.478226    0.390685
 C   -5.390703    0.709848    2.653499
 N   -3.676566    0.728260    0.985555
 C   -3.043467    1.040817   -0.268200
 C   -2.429270   -0.222138   -0.853410
 O   -2.221431   -1.214291   -0.152748
 C   -1.918221    2.076055   -0.027785
 C   -2.500593    3.307501    0.601687
 C   -2.530173    3.434616    1.984462
 C   -3.074600    4.301107   -0.179532
 C   -3.121517    4.537164    2.574586
 C   -3.664515    5.404473    0.409690
 C   -3.690922    5.523989    1.788504
 N   -2.091086   -0.224942   -2.144798
 C   -1.244359   -1.308088   -2.627058
 C    0.000376   -1.361899   -1.725335
 O    0.405983   -0.367502   -1.146611
 C   -0.882286   -0.915379   -4.064230
 C   -1.081043    0.599592   -4.069695
 C   -2.296224    0.781654   -3.164500
 N    0.583514   -2.557957   -1.608704
 C    1.738006   -2.710274   -0.736742
 C    2.881840   -1.841846   -1.267767
 O    2.961410   -1.537981   -2.443227
 C    2.079850   -4.202116   -0.824972
 C    1.557709   -4.590542   -2.205543
 C    0.270189   -3.778892   -2.321252
 N    3.799836   -1.453115   -0.360145
 C    3.934306   -1.931809    1.005145
 C    2.801102   -1.644711    2.001904
 O    2.517058   -2.504865    2.819677
 C    5.257171   -1.318912    1.494762
 C    6.062683   -1.144826    0.208993
 C    4.996024   -0.750189   -0.805782
 N    2.212672   -0.441600    1.999349
 C    1.166551   -0.131928    2.954601
 C   -0.221264   -0.406379    2.359255
 O   -1.195746    0.248197    2.650955
 C    1.365287    1.357714    3.212084
 C    1.753175    1.880876    1.826025
 C    2.447577    0.696914    1.129494
 O   -0.221392   -1.405113    1.516521
 H   -6.453837    0.899651    2.766562
 H   -5.177093   -0.329747    2.888992
 H   -4.835586    1.344688    3.340394
 H   -3.065774    0.391896    1.720126
 H   -3.823125    1.447771   -0.920860
 H   -1.193454    1.617878    0.644496
 H   -1.410670    2.315368   -0.961864
 H   -2.090969    2.660194    2.596566
 H   -3.062920    4.210386   -1.256985
 H   -3.142185    4.624996    3.651403
 H   -4.110330    6.170175   -0.208168
 H   -4.157052    6.382759    2.248731
 H   -1.785950   -2.255901   -2.560757
 H   -1.562767   -1.393631   -4.770449
 H    0.141343   -1.192688   -4.310313
 H   -0.213129    1.080483   -3.618085
 H   -1.236223    1.002406   -5.068027
 H   -3.224059    0.561130   -3.708110
 H   -2.366390    1.783466   -2.748271
 H    1.463679   -2.400830    0.273262
 H    3.147131   -4.389679   -0.723024
 H    1.551453   -4.746868   -0.042488
 H    1.388074   -5.659933   -2.309772
 H    2.263127   -4.262488   -2.969517
 H    0.005988   -3.578203   -3.360062
 H   -0.563199   -4.296709   -1.829419
 H    4.026727   -3.027294    1.005504
 H    5.746280   -1.965169    2.220229
 H    5.079799   -0.352312    1.967434
 H    6.843801   -0.393731    0.302287
 H    6.521230   -2.092255   -0.075960
 H    5.227455   -1.052040   -1.829015
 H    4.818107    0.330492   -0.805157
 H    1.285214   -0.766054    3.839222
 H    0.457684    1.819947    3.593254
 H    2.172406    1.507377    3.929305
 H    2.404284    2.751048    1.887957
 H    0.860973    2.167877    1.271914
 H    2.014601    0.513882    0.142060
 H    3.518553    0.874268    1.026332
 H   -1.075003   -1.461406    0.999044
