84 
1evh_ligand_ani-2x.xyz
 C   -4.961151    1.080921    1.320433
 O   -5.636821    1.677093    0.496033
 C   -5.421250    0.824502    2.740545
 N   -3.726052    0.575620    1.032414
 C   -3.075402    0.823475   -0.223434
 C   -2.606074   -0.503148   -0.836084
 O   -2.351284   -1.479100   -0.127938
 C   -1.824519    1.724657   -0.046171
 C   -2.112771    3.094311    0.528721
 C   -2.155887    3.284044    1.914726
 C   -2.343300    4.193759   -0.300849
 C   -2.424591    4.537944    2.455517
 C   -2.614578    5.449190    0.237065
 C   -2.654712    5.624771    1.615896
 N   -2.385648   -0.556865   -2.170948
 C   -1.475354   -1.584947   -2.685089
 C   -0.094925   -1.450682   -2.007925
 O    0.300160   -0.370196   -1.594814
 C   -1.393033   -1.260751   -4.186733
 C   -1.610073    0.255106   -4.230323
 C   -2.667475    0.491099   -3.153809
 N    0.654517   -2.588281   -1.900397
 C    1.757523   -2.657652   -0.943919
 C    2.913168   -1.732079   -1.346630
 O    3.219998   -1.590063   -2.516139
 C    2.187127   -4.139006   -1.020532
 C    1.781795   -4.560054   -2.436071
 C    0.455190   -3.832587   -2.641380
 N    3.604694   -1.102291   -0.321416
 C    3.828187   -1.672354    1.018593
 C    2.765936   -1.450444    2.106792
 O    2.564725   -2.366623    2.892036
 C    5.207149   -1.108820    1.457647
 C    5.876152   -0.668974    0.153259
 C    4.698106   -0.195461   -0.695409
 N    2.100541   -0.262386    2.208912
 C    0.990639   -0.146743    3.144658
 C   -0.355413   -0.566759    2.537154
 O   -1.414894   -0.103891    2.919848
 C    1.009980    1.331605    3.535061
 C    1.495303    2.030839    2.257547
 C    2.448419    1.020176    1.588548
 O   -0.251077   -1.468618    1.573036
 H   -6.416620    1.249644    2.870327
 H   -5.453770   -0.249744    2.951693
 H   -4.734082    1.287031    3.459302
 H   -3.170555    0.140752    1.763154
 H   -3.813937    1.311253   -0.865169
 H   -1.137612    1.187624    0.619663
 H   -1.304531    1.813666   -1.006073
 H   -1.981949    2.434212    2.575551
 H   -2.302885    4.075946   -1.383473
 H   -2.452446    4.667582    3.534403
 H   -2.790706    6.294200   -0.424153
 H   -2.864791    6.605468    2.035671
 H   -1.891272   -2.578392   -2.487536
 H   -2.195821   -1.788034   -4.714168
 H   -0.442828   -1.562225   -4.641959
 H   -0.682966    0.762727   -3.945119
 H   -1.921668    0.616586   -5.213440
 H   -3.686339    0.379712   -3.547609
 H   -2.590444    1.485959   -2.706289
 H    1.373521   -2.392686    0.044816
 H    3.254428   -4.287839   -0.822579
 H    1.628532   -4.711630   -0.270917
 H    1.692561   -5.642922   -2.552359
 H    2.514617   -4.182691   -3.154679
 H    0.241062   -3.634317   -3.696991
 H   -0.387563   -4.406067   -2.226494
 H    3.878086   -2.766282    0.952011
 H    5.781635   -1.856770    2.011295
 H    5.074162   -0.249270    2.123190
 H    6.627077    0.113034    0.297553
 H    6.359447   -1.521367   -0.336338
 H    4.854580   -0.259726   -1.772734
 H    4.422730    0.837564   -0.443901
 H    1.159529   -0.822454    3.988034
 H    0.026845    1.671180    3.869736
 H    1.724519    1.475873    4.350914
 H    1.988213    2.983720    2.463803
 H    0.645617    2.233999    1.592857
 H    2.298480    0.969355    0.505663
 H    3.495896    1.270040    1.786170
 H   -1.122072   -1.554948    1.109542
