89 
1ez9_ligand_ani-2x.xyz
 C   -6.618661    0.787272    0.182932
 C   -5.242829    0.379444   -0.345859
 C   -4.167701    1.392872    0.074455
 C   -2.716650    0.934530   -0.207211
 C   -1.809451    2.151168   -0.434184
 C   -1.948086    2.806113   -1.815328
 O   -6.706171    0.470697    1.562651
 O   -4.977120   -0.933826    0.126955
 O   -4.334233    1.750238    1.434065
 O   -2.120986    0.280852    0.911224
 O   -2.084234    3.112586    0.571141
 O   -1.525226    4.152728   -1.741205
 C   -2.122226   -1.110736    1.011195
 C   -1.231597   -1.462986    2.210981
 C   -1.028118   -2.980302    2.307596
 C   -0.665692   -3.610733    0.958237
 C   -1.580204   -3.123856   -0.182558
 C   -2.981256   -3.744984   -0.154053
 O    0.032087   -0.849328    2.094359
 O   -2.219925   -3.612052    2.758103
 O    0.703962   -3.256648    0.757664
 O   -1.627368   -1.688972   -0.189689
 O   -3.788256   -3.225122   -1.177015
 C    1.318426   -3.506051   -0.480188
 C    2.829637   -3.556806   -0.225780
 C    3.325219   -2.171489    0.166207
 C    2.932238   -1.151079   -0.885242
 C    1.417357   -1.184611   -1.076474
 C    0.930761   -0.297522   -2.213486
 O    3.171510   -4.507959    0.762207
 O    4.735640   -2.152973    0.296607
 O    3.340564    0.120211   -0.411501
 O    1.020761   -2.521887   -1.435195
 O   -0.463069   -0.077873   -2.158379
 C    4.290159    0.831151   -1.169031
 C    5.270676    1.497554   -0.201035
 C    4.509427    2.502754    0.649832
 C    3.798533    3.489848   -0.258247
 C    2.887605    2.729086   -1.222584
 C    2.199997    3.620799   -2.248757
 O    5.956181    0.569880    0.615184
 O    5.393329    3.224096    1.481418
 O    2.993110    4.387642    0.485551
 O    3.659533    1.786575   -1.974725
 O    1.235563    4.466673   -1.655195
 H   -7.389708    0.199689   -0.323302
 H   -6.819210    1.852924    0.004355
 H   -5.262361    0.343636   -1.442385
 H   -4.365537    2.283924   -0.543792
 H   -2.701806    0.284089   -1.090879
 H   -0.775404    1.794009   -0.326901
 H   -1.375039    2.231613   -2.551931
 H   -2.993569    2.839598   -2.147099
 H   -5.998807    0.997884    1.976140
 H   -5.476656   -0.992444    0.962957
 H   -3.634051    2.399415    1.624655
 H   -1.920898    3.974788    0.148863
 H   -0.549851    4.183711   -1.805931
 H   -3.139123   -1.472074    1.191524
 H   -1.737926   -1.121298    3.133733
 H   -0.202501   -3.174344    3.002824
 H   -0.754856   -4.704054    1.049124
 H   -1.145692   -3.402126   -1.148433
 H   -3.434687   -3.626393    0.837128
 H   -2.867235   -4.820447   -0.338116
 H   -0.141550    0.075145    1.866029
 H   -2.400047   -3.305513    3.655260
 H   -4.166518   -2.388792   -0.851978
 H    0.963876   -4.464457   -0.884172
 H    3.337707   -3.867006   -1.144215
 H    2.861691   -1.879801    1.122927
 H    3.423733   -1.392320   -1.839702
 H    0.936972   -0.887240   -0.135497
 H    1.431792    0.678357   -2.193300
 H    1.198766   -0.786427   -3.162291
 H    2.560596   -4.356663    1.498866
 H    4.970514   -2.925632    0.829712
 H   -0.866717   -0.833330   -1.694730
 H    4.825603    0.143585   -1.838307
 H    6.029601    2.039736   -0.781138
 H    3.755232    1.971148    1.253203
 H    4.548678    4.045278   -0.842562
 H    2.118321    2.209172   -0.627047
 H    2.950593    4.212977   -2.790944
 H    1.688809    2.975763   -2.971562
 H    5.405343   -0.228777    0.702958
 H    5.930210    2.557648    1.935379
 H    3.566099    4.813611    1.137375
 H    1.623195    4.804365   -0.829137
