89 
1ez9_ligand_aiqm1.xyz
 C   -6.448659    0.647694   -0.458793
 C   -4.988092    0.220427   -0.563645
 C   -4.074650    1.228457    0.141817
 C   -2.552260    1.008635   -0.014338
 C   -1.816623    2.353692    0.006543
 C   -1.954219    3.161794   -1.280042
 O   -6.951132    0.364015    0.838359
 O   -4.876656   -1.108100   -0.067092
 O   -4.478956    1.356212    1.496703
 O   -1.956062    0.301514    1.077001
 O   -2.319436    3.105887    1.107971
 O   -1.494918    4.479179   -1.056908
 C   -2.173467   -1.070720    1.216841
 C   -1.290849   -1.490100    2.410054
 C   -1.037800   -2.998983    2.461046
 C   -0.706657   -3.574189    1.086389
 C   -1.705457   -3.113656    0.019957
 C   -3.074554   -3.792063    0.128520
 O   -0.028458   -0.852083    2.390731
 O   -2.183518   -3.702135    2.928441
 O    0.641027   -3.147697    0.837173
 O   -1.793236   -1.685893   -0.004304
 O   -3.840407   -3.557678   -1.034802
 C    1.228442   -3.491125   -0.387694
 C    2.740515   -3.541099   -0.151985
 C    3.267214   -2.149849    0.150801
 C    2.860282   -1.185975   -0.943629
 C    1.337016   -1.215778   -1.127985
 C    0.866163   -0.401997   -2.317934
 O    3.095550   -4.443186    0.877508
 O    4.693176   -2.132285    0.217110
 O    3.293243    0.112186   -0.537471
 O    0.930081   -2.568841   -1.404334
 O   -0.537928   -0.215671   -2.314634
 C    4.141955    0.799019   -1.426627
 C    5.290157    1.419472   -0.627974
 C    4.759834    2.512972    0.286628
 C    3.984565    3.511524   -0.544447
 C    2.856079    2.795177   -1.279214
 C    2.063745    3.720910   -2.182521
 O    6.037568    0.480250    0.115439
 O    5.811942    3.221201    0.927772
 O    3.407500    4.529921    0.260966
 O    3.419676    1.784540   -2.121777
 O    1.225899    4.573620   -1.417125
 H   -7.048457    0.066623   -1.156280
 H   -6.555331    1.709965   -0.698831
 H   -4.692335    0.193796   -1.613980
 H   -4.275621    2.173637   -0.382261
 H   -2.346885    0.518955   -0.973329
 H   -0.745864    2.173415    0.157714
 H   -1.415408    2.659396   -2.085022
 H   -3.002380    3.252521   -1.574182
 H   -6.385327    0.850756    1.449846
 H   -5.578469   -1.193208    0.594162
 H   -3.901272    2.024367    1.881638
 H   -2.118263    4.025166    0.901626
 H   -0.535008    4.506071   -1.179097
 H   -3.225212   -1.295364    1.444729
 H   -1.830890   -1.211346    3.324393
 H   -0.187810   -3.166613    3.126337
 H   -0.729819   -4.669555    1.137523
 H   -1.311977   -3.367793   -0.966465
 H   -3.604376   -3.458674    1.019617
 H   -2.919421   -4.870200    0.206918
 H   -0.204966    0.056618    2.129358
 H   -2.360544   -3.419202    3.826847
 H   -4.234008   -2.682932   -0.928751
 H    0.852325   -4.454814   -0.743881
 H    3.213628   -3.911344   -1.062322
 H    2.851698   -1.812609    1.104380
 H    3.357337   -1.475017   -1.881235
 H    0.851667   -0.851082   -0.215129
 H    1.311687    0.593387   -2.286291
 H    1.191803   -0.903009   -3.240845
 H    2.524720   -4.259116    1.630465
 H    4.965359   -2.878815    0.757335
 H   -0.937740   -1.041134   -2.021651
 H    4.529821    0.122347   -2.190284
 H    5.973169    1.874767   -1.351047
 H    4.094903    2.070610    1.036216
 H    4.669674    3.960092   -1.278005
 H    2.171480    2.348880   -0.547681
 H    2.747317    4.299604   -2.816842
 H    1.407772    3.131795   -2.819369
 H    5.516843   -0.315797    0.285594
 H    6.387787    2.565956    1.328964
 H    4.094493    4.848101    0.851025
 H    1.767065    4.961505   -0.717104
