30 
1f0q_ligand_ani-2x.xyz
 C   44.404414    8.605720    2.918648
 O   45.146943    9.661590    2.591300
 C   44.083945    7.702664    1.915253
 C   43.308830    6.579147    2.204071
 O   43.040593    5.745046    1.164032
 C   42.846105    6.343968    3.491758
 C   43.160979    7.241566    4.504050
 C   42.643735    6.953921    5.880752
 O   41.968738    5.966874    6.109877
 C   42.994965    7.934256    6.957830
 C   42.529756    7.693832    8.243898
 C   42.826359    8.570921    9.279865
 C   42.318675    8.305502   10.676300
 C   43.600074    9.701167    9.013007
 C   44.079245    9.966728    7.733783
 O   44.812539   11.065548    7.551760
 C   43.779686    9.074600    6.672211
 C   44.279165    9.341606    5.314428
 O   44.974642   10.357542    5.074968
 C   43.943243    8.389432    4.248106
 H   45.275128   10.185375    3.410225
 H   44.438300    7.873396    0.905680
 H   42.501743    5.010657    1.484305
 H   42.241770    5.475905    3.737420
 H   41.930987    6.804332    8.412447
 H   41.223922    8.263552   10.694669
 H   42.688962    7.345435   11.052788
 H   42.639589    9.087523   11.368350
 H   43.846793   10.403233    9.803981
 H   45.058074   11.087062    6.602336
