61 
1f28_ligand_aiqm1.xyz
 C    1.937534   -1.045026   -0.084803
 O    1.142732   -0.519077    0.706203
 N    1.742874   -2.355763   -0.444190
 C    2.606823   -3.086844   -1.204983
 C    2.191704   -4.499059   -1.469927
 N    3.717995   -2.608052   -1.656138
 C    3.964710   -1.265596   -1.410585
 C    5.165696   -0.745499   -1.969072
 C    5.468129    0.577156   -1.853910
 C    4.580301    1.477828   -1.198249
 C    4.842998    2.867787   -1.175322
 C    3.942183    3.740991   -0.620796
 C    2.741459    3.260784   -0.038753
 C    2.499580    1.905639   -0.006588
 C    3.395831    0.983459   -0.597668
 C    3.116731   -0.430778   -0.683943
 C    1.748557    4.293934    0.474443
 N    0.607355    3.811021    1.222812
 C   -0.392558    3.033807    0.654384
 C   -1.255231    2.319698    1.505976
 C   -2.214170    1.497572    0.941579
 C   -2.324068    1.364469   -0.440710
 C   -1.506166    2.095054   -1.294436
 C   -0.550234    2.940838   -0.742393
 C   -3.216834    0.605366    1.616735
 C   -3.300309    0.304650   -0.743517
 O   -3.653534   -0.155280   -1.816538
 N   -3.755585   -0.147734    0.481416
 C   -4.646687   -1.279470    0.523290
 C   -5.563878   -1.269970    1.729110
 O   -5.297168   -0.876920    2.833561
 O   -6.739574   -1.854770    1.428658
 C   -3.913134   -2.639360    0.465539
 C   -2.879991   -2.874038    1.585558
 C   -1.489608   -2.455940    1.172743
 O   -0.973067   -1.488485    1.907600
 O   -0.897266   -2.992805    0.251337
 H    0.855132   -2.761864   -0.154220
 H    1.225352   -4.507783   -1.973311
 H    2.076440   -5.030447   -0.524395
 H    2.938488   -4.992147   -2.085603
 H    5.809269   -1.437466   -2.494660
 H    6.382115    0.968916   -2.287985
 H    5.757107    3.236550   -1.625674
 H    4.144414    4.806094   -0.630904
 H    1.594658    1.531040    0.439482
 H    1.395742    4.886332   -0.372885
 H    2.280064    4.991061    1.123181
 H    0.827728    3.558785    2.171135
 H   -1.130928    2.382770    2.581736
 H   -1.594963    1.982273   -2.367920
 H    0.116677    3.492676   -1.389146
 H   -2.762406   -0.050259    2.353745
 H   -4.009050    1.171790    2.111999
 H   -5.267092   -1.222422   -0.370993
 H   -7.254946   -1.880430    2.245048
 H   -4.669092   -3.425281    0.508266
 H   -3.427567   -2.712293   -0.505759
 H   -2.824494   -3.945452    1.794469
 H   -3.173331   -2.368693    2.504730
 H   -0.133548   -1.163235    1.486441
