22 
1f3e_ligand_aiqm1.xyz
 N   15.865691   17.040685   24.242202
 C   15.410239   16.828744   22.975891
 O   14.239085   16.476717   22.818023
 C   16.393166   17.049975   21.921461
 C   16.047049   16.863787   20.560592
 C   17.016651   17.086088   19.571585
 C   18.310420   17.485524   19.901487
 C   18.656944   17.670967   21.253430
 C   17.706616   17.453537   22.230563
 C   18.125610   17.663174   23.642256
 O   19.243822   18.010920   23.990846
 N   17.149968   17.435651   24.558174
 N   19.244036   17.698848   18.923084
 N   14.796270   16.474803   20.204451
 H   15.215701   16.899476   24.994091
 H   16.743116   16.941333   18.531347
 H   19.651415   17.979765   21.538302
 H   17.382328   17.560864   25.527613
 H   19.015855   17.569156   17.958282
 H   20.174377   17.981353   19.159414
 H   14.117648   16.323652   20.934530
 H   14.572293   16.351281   19.237675
