54 
1f40_ligand_xtb.xyz
 C    0.152648   -0.430624    2.705714
 N   -1.127505    0.040170    2.203838
 C   -2.240339   -0.584635    2.890629
 C   -0.211066   -1.357618    3.870496
 C   -1.613312   -1.835899    3.499509
 C    0.869848   -1.195628    1.589305
 O    0.307861   -1.890279    0.785261
 O    2.179351   -1.016135    1.668408
 C    2.998112   -1.649018    0.680053
 C    4.240571   -0.797990    0.456845
 C    3.899959    0.555439   -0.180355
 N    3.801915   -0.137658   -3.870172
 C    2.512920    0.007853   -4.128597
 C    1.580091    0.350143   -3.162460
 C    2.018016    0.541859   -1.861787
 C    3.369491    0.388738   -1.574170
 C    4.211735    0.049861   -2.629140
 C   -1.134564    0.804971    1.103564
 O   -0.091732    1.181601    0.584583
 C   -2.514092    1.222069    0.598306
 O   -3.368118    1.552936    1.386653
 C   -2.704654    1.256201   -0.905795
 C   -1.972385    2.516704   -1.401892
 C   -4.195986    1.388057   -1.222567
 C   -2.088755    0.017088   -1.578949
 C   -2.613371   -1.314841   -1.055444
 H    0.788204    0.408769    3.003374
 H   -3.057982   -0.807741    2.205617
 H   -2.616220    0.090325    3.667583
 H   -0.235086   -0.787795    4.799849
 H    0.500184   -2.174339    3.978424
 H   -2.172719   -2.208701    4.354334
 H   -1.547714   -2.619838    2.744336
 H    3.268734   -2.645541    1.046866
 H    2.418295   -1.759551   -0.242040
 H    4.727021   -0.632645    1.419450
 H    4.923633   -1.352657   -0.188227
 H    4.804442    1.167339   -0.204007
 H    3.154225    1.060819    0.435325
 H    2.222679   -0.155621   -5.158427
 H    0.538461    0.464549   -3.420302
 H    1.327636    0.811674   -1.075386
 H    5.276511   -0.072472   -2.468800
 H   -2.392013    3.406698   -0.937731
 H   -2.087981    2.599903   -2.480429
 H   -0.914337    2.464209   -1.162635
 H   -4.757786    0.552302   -0.814316
 H   -4.590897    2.299700   -0.781431
 H   -4.347509    1.423318   -2.298413
 H   -2.288747    0.086492   -2.651113
 H   -1.007992    0.037603   -1.438668
 H   -2.173060   -2.128337   -1.627091
 H   -3.694915   -1.384038   -1.142767
 H   -2.332105   -1.457188   -0.015213
