43 
1f4x_ligand_xtb.xyz
 C   -2.787366    0.415072   -0.487881
 O   -2.833775    0.309093   -1.883522
 C   -3.908143   -0.482057   -2.356658
 C   -1.727047    1.491783   -0.172473
 O   -1.676699    1.858609    1.186527
 C   -2.732623    2.675414    1.633052
 C   -0.343759    0.928752   -0.522278
 O    0.678207    1.852213   -0.240842
 C   -0.147493   -0.387396    0.251334
 N    1.170119   -0.914326   -0.014886
 C    2.115632   -0.950757    0.939051
 O    1.905174   -0.821802    2.131703
 C   -1.259842   -1.371990   -0.143210
 O   -2.531534   -0.800247    0.145462
 C   -1.160468   -2.673881    0.636377
 C    3.901067    0.331914   -1.630362
 O    2.551301    0.435644   -2.021672
 C    4.104923    0.155131   -0.126222
 C    3.548543   -1.172526    0.445080
 O    4.323774   -1.608000    1.527600
 H   -3.773200    0.719065   -0.097091
 H   -3.876459   -1.486454   -1.926528
 H   -3.790920   -0.534609   -3.436280
 H   -4.867993   -0.016542   -2.107369
 H   -1.943266    2.370985   -0.799476
 H   -2.851392    3.552100    0.985806
 H   -2.457567    2.995314    2.636330
 H   -3.680212    2.131069    1.677560
 H   -0.299152    0.737149   -1.599359
 H    0.550446    2.139556    0.674146
 H   -0.211217   -0.189324    1.327991
 H    1.484258   -0.866990   -0.980099
 H   -1.186945   -1.566774   -1.225094
 H   -1.963721   -3.344123    0.344576
 H   -1.245100   -2.467934    1.699349
 H   -0.203278   -3.146725    0.439204
 H    4.454343    1.222847   -1.958672
 H    4.296731   -0.534007   -2.168236
 H    2.143124    1.178135   -1.548223
 H    3.657695    0.998198    0.407717
 H    5.177234    0.159012    0.075939
 H    3.576220   -1.948518   -0.329892
 H    3.820779   -1.372272    2.328522
