43 
1f4x_ligand_aiqm1.xyz
 C   -2.822541    0.375616   -0.438199
 O   -2.977502    0.174330   -1.817050
 C   -4.070675   -0.677049   -2.126972
 C   -1.755184    1.460457   -0.280652
 O   -1.663368    1.921747    1.056771
 C   -2.639277    2.886020    1.402513
 C   -0.383058    0.905060   -0.622783
 O    0.622208    1.883614   -0.359558
 C   -0.129980   -0.393094    0.144986
 N    1.180572   -0.923781   -0.206982
 C    2.079972   -1.193971    0.759532
 O    1.794136   -1.383415    1.936019
 C   -1.252086   -1.395299   -0.135054
 O   -2.500844   -0.800900    0.246906
 C   -1.123869   -2.666566    0.669588
 C    4.032067    0.633021   -1.377402
 O    2.701042    0.756746   -1.869585
 C    4.129025    0.137829    0.060375
 C    3.547166   -1.268618    0.327030
 O    4.271783   -1.893331    1.357647
 H   -3.769425    0.701498    0.002271
 H   -3.919119   -1.676952   -1.720369
 H   -4.132947   -0.725883   -3.210591
 H   -5.001991   -0.264627   -1.727247
 H   -1.993191    2.291395   -0.951813
 H   -2.597043    3.741196    0.719979
 H   -2.412817    3.212827    2.413486
 H   -3.647664    2.466259    1.386630
 H   -0.337521    0.710653   -1.691937
 H    0.408564    2.272447    0.496257
 H   -0.115324   -0.188530    1.219931
 H    1.570718   -0.602511   -1.087106
 H   -1.273696   -1.622731   -1.210053
 H   -1.999306   -3.298715    0.513224
 H   -1.044249   -2.426148    1.728609
 H   -0.231095   -3.218132    0.374353
 H    4.553316    1.590945   -1.460503
 H    4.519674   -0.073868   -2.050133
 H    2.225409    1.411738   -1.343735
 H    3.678421    0.865432    0.745810
 H    5.186477    0.078598    0.317443
 H    3.630461   -1.869660   -0.584896
 H    3.663161   -1.913848    2.110259
