77 
1f4y_ligand_xtb.xyz
 C   -0.093610    0.163042   -2.949065
 C    0.735523   -1.132233   -3.062944
 O    1.536086   -1.016127   -4.211047
 C    1.900822   -2.248731   -4.797741
 C    1.545584   -1.256729   -1.754848
 O    2.287644   -2.449050   -1.691400
 C    2.423454   -0.007776   -1.606328
 N    3.107268   -0.017208   -0.330441
 C    4.225640   -0.720774   -0.109891
 O    4.850879   -1.318597   -0.975027
 C    1.581673    1.274077   -1.695444
 O    0.722297    1.277424   -2.832479
 C    2.462002    2.510121   -1.802834
 C    2.456464   -1.773587    2.026138
 O    1.916571   -0.469287    2.156870
 C    3.977227   -1.761408    2.181357
 C    4.717571   -0.700845    1.334742
 O    6.098054   -0.946490    1.347779
 C   -1.722543    2.311946   -1.465050
 O   -0.950031   -0.022156   -1.846287
 C   -2.780021    4.413845   -1.537075
 C   -2.072264    0.832233   -1.715278
 O   -2.937541    3.006584   -1.487163
 C   -2.832550    0.288028   -0.497054
 O   -3.174483   -1.061577   -0.673828
 C   -1.946072    0.505792    0.743946
 N   -2.586806   -0.039070    1.917129
 C   -1.960180   -0.819105    2.806288
 O   -0.756545   -1.039827    2.811135
 C   -1.661494    2.014364    0.894000
 O   -1.014919    2.499032   -0.275589
 C   -0.742210    2.310689    2.069979
 C   -3.891004   -2.799925    1.977200
 O   -4.795909   -1.742585    1.719832
 C   -3.434947   -2.773912    3.433306
 C   -2.859289   -1.413325    3.890472
 O   -2.118026   -1.559117    5.071530
 H   -0.670900    0.328184   -3.870886
 H    0.054313   -1.990861   -3.150157
 H    2.458217   -2.880898   -4.102930
 H    2.526811   -1.996226   -5.650926
 H    1.013457   -2.793158   -5.141838
 H    0.815430   -1.288138   -0.931953
 H    3.231982   -2.242360   -1.785709
 H    3.176245   -0.019707   -2.404374
 H    2.568681    0.253230    0.489540
 H    0.961219    1.339071   -0.788945
 H    1.845950    3.402495   -1.750634
 H    3.182135    2.521324   -0.990364
 H    2.986856    2.499778   -2.753842
 H    2.037391   -2.431171    2.795405
 H    2.187425   -2.191194    1.044828
 H    0.979440   -0.563699    2.400733
 H    4.241217   -1.579458    3.223613
 H    4.355564   -2.746333    1.900976
 H    4.545281    0.290540    1.767944
 H    6.296056   -1.427209    0.526253
 H   -1.044688    2.680311   -2.250019
 H   -2.199014    4.774339   -0.684220
 H   -3.784064    4.829942   -1.506807
 H   -2.279159    4.711613   -2.463848
 H   -2.697523    0.778234   -2.617994
 H   -3.772688    0.837308   -0.382449
 H   -2.391048   -1.506076   -1.025476
 H   -0.993383   -0.019570    0.605352
 H   -3.600504   -0.049101    1.931962
 H   -2.622899    2.536522    1.020991
 H   -0.542854    3.377242    2.116401
 H    0.201748    1.786368    1.948507
 H   -1.209329    1.993288    2.997230
 H   -4.377370   -3.764363    1.774677
 H   -3.019551   -2.713500    1.316506
 H   -4.859215   -1.642840    0.761506
 H   -2.662135   -3.533937    3.562693
 H   -4.269372   -3.020015    4.089407
 H   -3.681989   -0.724668    4.105820
 H   -1.202551   -1.742143    4.807638
