39 
1f74_ligand_xtb.xyz
 C   -2.429164   -1.250096   -2.755812
 O   -1.811738   -2.145024   -3.272481
 O   -3.714750   -1.317680   -2.452171
 C   -1.818136    0.109029   -2.376609
 O   -2.508493    0.998812   -1.948002
 C   -0.352143    0.212748   -2.692403
 C    0.417874    1.146395   -1.753272
 C    0.184581    0.942360   -0.249625
 N   -0.913184    1.765024    0.215181
 C   -0.968161    2.162265    1.503540
 C   -2.232629    2.909825    1.857507
 O   -0.061553    1.955514    2.291267
 O   -1.164336   -1.081580   -0.415812
 C   -0.036686   -0.509050    0.219776
 C    1.186652   -1.416157    0.030896
 O    0.784378   -2.706125    0.438537
 C    2.432189   -0.982077    0.823592
 O    3.346263   -2.054305    0.714481
 C    2.147438   -0.694985    2.302733
 O    3.410160   -0.573212    2.938474
 H   -4.083750   -2.187709   -2.676790
 H    0.067219   -0.792210   -2.697218
 H   -0.275235    0.599140   -3.713989
 H    0.150469    2.180975   -1.975914
 H    1.481572    1.024818   -1.962067
 H    1.064583    1.309630    0.292316
 H   -1.738784    1.792709   -0.369664
 H   -2.162909    3.281414    2.875483
 H   -3.085585    2.239988    1.775423
 H   -2.378790    3.741665    1.173321
 H   -1.061568   -2.039542   -0.316735
 H   -0.252384   -0.464337    1.297911
 H    1.468900   -1.451369   -1.033344
 H    1.600810   -3.212003    0.562274
 H    2.870930   -0.083304    0.365903
 H    4.003088   -1.919739    1.410912
 H    1.565995    0.225169    2.406575
 H    1.587954   -1.535480    2.736346
 H    3.279124   -0.181695    3.806259
