39 
1f74_ligand_ani-2x.xyz
 C   -2.472613   -1.213059   -2.732314
 O   -1.865444   -2.157615   -3.177325
 O   -3.757784   -1.260683   -2.371178
 C   -1.849989    0.182958   -2.522311
 O   -2.536137    1.128626   -2.210060
 C   -0.357741    0.248057   -2.734839
 C    0.404497    1.129969   -1.729691
 C    0.152641    0.919632   -0.226270
 N   -0.979974    1.702237    0.231079
 C   -1.019571    2.186029    1.502139
 C   -2.293864    2.925044    1.856566
 O   -0.090311    2.031954    2.287013
 O   -1.111491   -1.123406   -0.469157
 C   -0.019129   -0.540050    0.219905
 C    1.224663   -1.410347    0.044606
 O    0.861807   -2.698194    0.510802
 C    2.469346   -0.939184    0.801909
 O    3.401350   -2.003634    0.696741
 C    2.196745   -0.666572    2.279440
 O    3.475350   -0.578365    2.903665
 H   -4.041754   -2.176487   -2.532445
 H    0.014540   -0.777606   -2.728977
 H   -0.193726    0.638700   -3.746482
 H    0.198947    2.187079   -1.935294
 H    1.476358    0.982328   -1.919058
 H    1.010232    1.336309    0.314003
 H   -1.803188    1.729967   -0.358769
 H   -2.230945    3.267259    2.890198
 H   -3.166165    2.270888    1.743770
 H   -2.435584    3.788305    1.197010
 H   -1.069909   -2.074772   -0.287435
 H   -0.256496   -0.511594    1.294284
 H    1.474290   -1.461457   -1.029405
 H    1.698023   -3.186274    0.577534
 H    2.889241   -0.035070    0.333948
 H    4.000801   -1.891986    1.452782
 H    1.626265    0.263794    2.416079
 H    1.616435   -1.510617    2.682014
 H    3.360486   -0.702362    3.852323
