39 
1f7b_ligand_aiqm1.xyz
 C    1.769929    2.065393    1.746868
 O    1.612153    3.064879    0.872634
 O    0.950202    1.768875    2.580749
 C    3.051294    1.313396    1.498335
 C    2.924091    0.509137    0.195146
 C    1.949444   -0.646808    0.314536
 C    0.898645   -0.783637   -0.784130
 N    0.537360   -2.178490   -0.871354
 C   -0.255944   -2.676703   -1.840580
 C   -0.597978   -4.136492   -1.716135
 O   -0.685222   -1.980577   -2.760018
 O   -0.885374    0.494599   -1.838411
 C   -0.276339    0.210998   -0.583807
 C   -1.324596   -0.227767    0.455153
 O   -2.033598   -1.384794    0.017717
 C   -2.376473    0.847978    0.733457
 O   -3.104737    1.142646   -0.452500
 C   -1.888276    2.136090    1.378580
 O   -1.079067    2.929642    0.507829
 O    2.012934   -1.445204    1.222059
 H    0.683193    3.360123    0.908601
 H    3.871152    2.023951    1.399693
 H    3.238301    0.645495    2.336442
 H    2.632891    1.162898   -0.626318
 H    3.896475    0.081608   -0.058395
 H    1.363623   -0.480531   -1.723610
 H    0.768983   -2.737793   -0.065105
 H    0.152041   -4.689007   -1.151360
 H   -0.716535   -4.562629   -2.707932
 H   -1.553284   -4.215538   -1.195315
 H   -0.920926   -0.351859   -2.327861
 H    0.178760    1.145264   -0.253153
 H   -0.812632   -0.491351    1.384726
 H   -2.790386   -1.061596   -0.480420
 H   -3.085889    0.394354    1.431290
 H   -2.481353    1.048574   -1.190314
 H   -2.764283    2.711853    1.690378
 H   -1.269496    1.918148    2.244156
 H   -1.589684    3.074776   -0.291829
