37 
1f8b_ligand_xtb.xyz
 C   -3.927457    0.192645   -0.052197
 C   -2.523248   -0.267117   -0.212753
 C   -2.213539   -1.564141   -0.161791
 C   -0.799735   -2.069208   -0.195124
 C    0.174712   -0.871104   -0.074441
 C   -0.365345    0.304322   -0.896532
 C    0.510397    1.566733   -0.963026
 C    0.916827    2.202433    0.379161
 C    2.108209    1.544470    1.092879
 C    2.363201   -2.016278    0.077421
 C    3.736706   -2.064833   -0.548047
 N    1.504548   -1.194156   -0.558218
 O   -4.040822    1.521073   -0.072598
 O   -4.868704   -0.545361    0.085936
 O   -0.665128   -2.972185    0.866893
 O   -1.623702    0.735611   -0.425363
 O    1.637046    1.310913   -1.775415
 O    1.272205    3.529113    0.049199
 O    2.475764    2.422238    2.140034
 O    2.050842   -2.675136    1.053708
 H   -2.984576   -2.293030    0.019847
 H   -0.605518   -2.582908   -1.157198
 H    0.206983   -0.604093    0.990337
 H   -0.475146   -0.051095   -1.936161
 H   -0.124942    2.326637   -1.444753
 H    0.044150    2.199026    1.047532
 H    2.941851    1.428191    0.386006
 H    1.840319    0.563432    1.491754
 H    3.670890   -2.529563   -1.529299
 H    4.140231   -1.062430   -0.666120
 H    4.396732   -2.656129    0.079783
 H    1.842888   -0.618204   -1.316686
 H   -4.969844    1.776686    0.044751
 H    0.284857   -3.062993    1.083286
 H    2.103304    2.152288   -1.864507
 H    1.668258    3.916829    0.841099
 H    3.147795    2.001791    2.684372
