20 
1f9g_ligand_aiqm1.xyz
 C    2.448429   -0.209922    0.599479
 C    2.038096    0.687716   -0.475788
 C    0.747854    0.987154   -0.304583
 C    0.234512    0.247030    0.899949
 C   -0.853590   -0.784212    0.631499
 C   -2.195072   -0.141657    0.337601
 O    3.543656   -0.668265    0.773939
 O    2.915372    1.108112   -1.410083
 O   -0.080074    1.800309   -0.993258
 O    1.388862   -0.427569    1.420797
 O   -0.434646   -1.591406   -0.451040
 O   -3.109172   -1.225118    0.168574
 H   -0.117528    0.950300    1.663043
 H   -0.954796   -1.384140    1.540952
 H   -2.502604    0.487450    1.178845
 H   -2.136920    0.461603   -0.566736
 H    3.744677    0.656896   -1.210924
 H    0.381307    2.139345   -1.767019
 H   -1.150897   -2.203340   -0.634068
 H   -3.907268   -0.890287   -0.237980
