61 
1fax_ligand_aiqm1.xyz
 C    2.439398    0.328902   -0.937118
 C    3.116672   -0.793996   -1.345853
 C    3.619243   -1.689610   -0.358503
 C    3.425889   -1.448126    0.977255
 C    2.727012   -0.295074    1.413018
 C    2.514203   -0.012755    2.785517
 C    1.857953    1.126891    3.171046
 C    1.377074    2.054184    2.205879
 C    1.561188    1.784221    0.868278
 C    2.234304    0.612808    0.439103
 C    0.700192    3.311598    2.646023
 N    0.721696    4.431617    2.017408
 N    0.060168    3.228946    3.860322
 C    3.256356   -1.130298   -2.806919
 C    2.326014   -2.536902   -4.677375
 O    2.106539   -3.833817   -4.965720
 O    2.471188   -1.694736   -5.525345
 C    2.323613   -2.296380   -3.185002
 N   -2.994763    0.695552    1.854358
 C   -2.166418   -0.074397    0.941704
 C   -2.925033    0.000508   -0.391513
 C   -4.360888    0.274451    0.015748
 C   -4.203550    1.198191    1.215798
 C   -2.545648    1.084560    3.081066
 N   -1.456861    0.672776    3.627806
 C   -3.412128    2.058487    3.829443
 C    0.406665   -2.767568   -1.630299
 C   -0.845986   -2.482723   -1.098391
 C    0.107730   -1.050182   -3.289363
 C   -1.147362   -0.763729   -2.764051
 C   -1.619136   -1.473494   -1.661869
 O   -2.867346   -1.209324   -1.142305
 C    0.903389   -2.047665   -2.716370
 H    2.046393    1.019859   -1.677425
 H    4.164127   -2.573360   -0.675015
 H    3.813233   -2.138843    1.717237
 H    2.885280   -0.707353    3.530989
 H    1.694874    1.340895    4.218477
 H    1.189517    2.473225    0.117457
 H    1.319354    4.372400    1.198748
 H   -0.472620    4.051898    4.086712
 H   -0.382744    2.342922    4.083591
 H    3.005631   -0.263077   -3.417210
 H    4.285168   -1.409457   -3.045065
 H    2.065738   -3.900842   -5.927935
 H    2.674299   -3.211819   -2.705983
 H   -1.159192    0.345119    0.857456
 H   -2.064782   -1.113279    1.266651
 H   -2.526655    0.828583   -0.984504
 H   -4.949535    0.709418   -0.790156
 H   -4.819928   -0.664619    0.326212
 H   -4.084526    2.240152    0.895428
 H   -5.052179    1.151061    1.897754
 H   -0.959560    0.012459    3.033287
 H   -3.631151    2.938721    3.224200
 H   -2.890678    2.364826    4.733584
 H   -4.359650    1.596546    4.112758
 H    1.016515   -3.541805   -1.180798
 H   -1.229773   -3.036282   -0.250720
 H    0.478831   -0.497172   -4.143536
 H   -1.767858    0.006804   -3.206867
