57 
1fcx_ligand_ani-2x.xyz
 C    7.179528   -2.141540    0.847355
 C    6.079405   -1.191899    0.533059
 C    5.933899    0.041650    1.227387
 C    4.908031    0.885229    0.905873
 C    3.975739    0.549268   -0.117391
 C    4.121880   -0.681731   -0.809252
 C    5.196148   -1.539566   -0.457051
 C   -1.936221    0.302565    0.233735
 C   -2.017005   -0.323962    1.626158
 C   -3.351494   -1.070065    1.822658
 C   -4.543863   -0.301197    1.261695
 C   -4.440892   -0.066956   -0.259256
 C   -3.029675    0.377159   -0.645789
 C   -0.882146   -1.343701    1.819764
 C   -1.862586    0.784122    2.683118
 C   -4.795759   -1.356126   -1.024819
 C   -5.472460    1.013702   -0.627028
 O    7.356288   -3.203058    0.293961
 O    7.990907   -1.707991    1.832488
 C    2.905107    1.415050   -0.465016
 C    2.010015    1.073197   -1.445727
 C    2.165202   -0.158115   -2.134497
 C    3.190174   -1.010672   -1.830260
 C   -0.499853    1.344017   -1.440876
 C   -0.710287    0.843035   -0.163553
 C   -2.803727    0.849422   -1.945489
 C   -1.563643    1.325973   -2.343024
 C    0.839826    1.962470   -1.812769
 O    1.006444    3.215548   -1.168251
 H    6.645017    0.295417    2.006793
 H    4.788967    1.831424    1.431113
 H    5.331331   -2.487271   -0.971005
 H   -3.284523   -2.052281    1.333252
 H   -3.487238   -1.268630    2.893305
 H   -4.620698    0.674250    1.763251
 H   -5.480770   -0.832425    1.471810
 H    0.106452   -0.878622    1.767139
 H   -0.971961   -1.822974    2.802065
 H   -0.924691   -2.124548    1.051619
 H   -2.691093    1.501305    2.649425
 H   -0.935942    1.346670    2.529936
 H   -1.832069    0.349775    3.689361
 H   -4.704550   -1.206445   -2.106232
 H   -4.137512   -2.189319   -0.753204
 H   -5.828505   -1.655535   -0.810668
 H   -6.471015    0.704780   -0.295246
 H   -5.231156    1.967501   -0.143517
 H   -5.522570    1.186964   -1.705910
 H    8.657715   -2.405201    1.942197
 H    2.805585    2.361314    0.057020
 H    1.453112   -0.416539   -2.915389
 H    3.304837   -1.952098   -2.364034
 H    0.118363    0.871229    0.541864
 H   -3.612260    0.853793   -2.671111
 H   -1.422439    1.693497   -3.356509
 H    0.842631    2.095983   -2.907220
 H    0.156201    3.671959   -1.213210
