57 
1fcx_ligand_xtb.xyz
 C    6.908791   -2.533500    0.358755
 C    5.862287   -1.503205    0.216398
 C    5.756342   -0.433068    1.130630
 C    4.779306    0.506048    0.972790
 C    3.862005    0.430417   -0.098362
 C    3.966790   -0.646475   -1.019201
 C    4.979889   -1.601978   -0.836630
 C   -1.907573    0.508620    0.385541
 C   -2.099726    0.077458    1.827408
 C   -3.266154   -0.910383    1.945611
 C   -4.477215   -0.463670    1.145159
 C   -4.185225   -0.400711   -0.358728
 C   -2.855524    0.283587   -0.616120
 C   -0.839999   -0.627875    2.352682
 C   -2.365242    1.324616    2.682498
 C   -4.133069   -1.814794   -0.954229
 C   -5.335696    0.374646   -1.018754
 O    7.055631   -3.474686   -0.383247
 O    7.716947   -2.338205    1.416171
 C    2.847397    1.390273   -0.280561
 C    1.973550    1.300635   -1.330588
 C    2.078657    0.229539   -2.241072
 C    3.048168   -0.717681   -2.090187
 C   -0.454592    1.587487   -1.236400
 C   -0.732368    1.173405    0.054352
 C   -2.557900    0.685191   -1.915955
 C   -1.378328    1.326093   -2.234880
 C    0.854754    2.298045   -1.516847
 O    1.049853    3.400516   -0.652889
 H    6.457902   -0.374289    1.947703
 H    4.693512    1.328650    1.668073
 H    5.076248   -2.427458   -1.526866
 H   -2.938956   -1.889796    1.592164
 H   -3.539871   -1.017143    2.997756
 H   -4.793618    0.523714    1.486787
 H   -5.307630   -1.151618    1.319764
 H   -0.015003    0.064210    2.493322
 H   -1.055172   -1.090020    3.314234
 H   -0.520564   -1.403764    1.659937
 H   -3.260901    1.842927    2.349049
 H   -1.531030    2.018400    2.612487
 H   -2.494025    1.044942    3.726137
 H   -3.950008   -1.770470   -2.025122
 H   -3.334203   -2.398100   -0.503641
 H   -5.077236   -2.329160   -0.786725
 H   -6.288130   -0.024437   -0.675311
 H   -5.287502    1.428565   -0.752395
 H   -5.312903    0.292196   -2.101490
 H    8.379018   -3.045596    1.450509
 H    2.766468    2.215041    0.410345
 H    1.376332    0.169074   -3.059916
 H    3.130260   -1.537751   -2.788530
 H    0.003661    1.383421    0.814677
 H   -3.266964    0.496036   -2.706827
 H   -1.182545    1.627043   -3.254645
 H    0.860127    2.643010   -2.565728
 H    0.261176    3.951831   -0.684995
