53 
1fcz_ligand_aiqm1.xyz
 C   34.958066   18.340944   88.439718
 C   35.935896   17.536809   87.640739
 C   36.616128   18.044378   86.532170
 C   37.522369   17.243528   85.845458
 C   37.760243   15.921195   86.238401
 C   38.720063   15.128387   85.459993
 C   38.934553   13.805750   85.569962
 C   37.081870   15.422962   87.361481
 C   36.188270   16.227598   88.054192
 C   39.849260   13.030339   84.686120
 C   41.061496   13.681649   84.103811
 C   41.511663   13.230810   82.862606
 C   42.632037   13.771226   82.227397
 C   43.029519   13.227865   80.851646
 C   44.440711   13.693750   80.471872
 C   44.662510   15.166884   80.762506
 C   44.564794   15.485548   82.259891
 C   43.331161   14.817996   82.869157
 C   42.896511   15.235155   84.135735
 C   41.779892   14.685649   84.751945
 C   42.007792   13.725455   79.812644
 C   43.032081   11.692539   80.831316
 C   44.504070   17.014199   82.400019
 C   45.819126   14.979418   82.995419
 O   34.400755   19.409138   87.819710
 O   34.653220   18.077117   89.569657
 O   39.578205   11.868395   84.433790
 H   36.484389   19.073082   86.214908
 H   38.050494   17.650909   84.992024
 H   39.269677   15.699707   84.716133
 H   38.351760   13.193193   86.252007
 H   37.260358   14.413104   87.706906
 H   35.672142   15.859789   88.930914
 H   40.950133   12.431569   82.396775
 H   44.607513   13.475458   79.413212
 H   45.165577   13.092454   81.030208
 H   43.916232   15.767255   80.230691
 H   45.640875   15.493435   80.397965
 H   43.445454   16.006989   84.660693
 H   41.487297   15.023655   85.738558
 H   41.001426   13.384787   80.070745
 H   41.987270   14.816202   79.753737
 H   42.256372   13.332723   78.822689
 H   43.708711   11.296288   81.591695
 H   42.041485   11.271280   80.998861
 H   43.376754   11.349018   79.852018
 H   45.357446   17.453759   81.876687
 H   43.588254   17.408511   81.952287
 H   44.552537   17.344118   83.438368
 H   45.931803   13.897253   82.905806
 H   46.714160   15.454053   82.582744
 H   45.766297   15.222054   84.060331
 H   34.656323   19.416472   86.892984
