38 
1fgi_ligand_dft.xyz
 N    5.669106    2.067757   20.451465
 C    6.520838    2.241628   21.519503
 O    6.509479    1.517217   22.514929
 C    7.365370    3.416135   21.181486
 C    7.306797    4.912373   19.032388
 C    6.661458    5.084558   17.807638
 C    5.633689    4.226435   17.418544
 C    5.223610    3.175584   18.240919
 C    5.874903    3.019659   19.452616
 C    6.913047    3.872048   19.864257
 C    8.364499    3.980638   21.914102
 N    8.489137    2.625093   23.991409
 C    8.914072    3.655844   23.185330
 C    9.968503    4.299633   23.851845
 C   10.167560    3.623542   25.073449
 C    9.229604    2.599851   25.117255
 C   11.187440    3.945812   26.123521
 C   10.782810    5.450571   23.343452
 C   12.013991    4.973684   22.567284
 C   12.841454    6.115375   22.032030
 O   12.559072    7.287728   22.101401
 O   13.969036    5.677677   21.436920
 H    4.983178    1.329826   20.435569
 H    8.105537    5.588039   19.326488
 H    6.962615    5.895469   17.152063
 H    5.141839    4.374715   16.462136
 H    4.423165    2.506885   17.939491
 H    8.843815    4.843090   21.452395
 H    7.721197    2.008670   23.710885
 H    9.051291    1.862781   25.888000
 H   11.071862    3.295485   26.995724
 H   12.211073    3.817787   25.751131
 H   11.095720    4.982165   26.469320
 H   10.187995    6.108513   22.701811
 H   11.109818    6.074826   24.181997
 H   12.655697    4.342774   23.192888
 H   11.717614    4.342490   21.720359
 H   14.431109    6.468644   21.115999
