42 
1fl3_ligand_ani-2x.xyz
 C   59.425904    3.161947  -28.772052
 C   58.169858    3.605601  -28.379374
 C   57.090197    2.725987  -28.386757
 C   57.279559    1.407236  -28.788439
 C   58.536659    0.963836  -29.181223
 C   59.630788    1.837226  -29.178518
 C   60.989113    1.429643  -29.583201
 C   61.376302    0.215334  -29.994734
 C   62.731122   -0.188619  -30.399011
 C   63.825788    0.683969  -30.407389
 C   65.077609    0.242345  -30.799098
 C   65.277516   -1.084941  -31.194154
 C   64.196376   -1.971236  -31.193150
 C   62.949972   -1.512416  -30.798579
 N   66.576541   -1.458377  -31.580320
 C   67.039190   -2.691904  -31.975789
 C   68.521255   -2.704627  -32.336087
 C   69.048309   -4.120363  -32.538621
 C   70.502796   -4.108027  -33.007560
 C   71.161613   -5.474327  -33.123105
 O   70.450096   -6.419556  -33.782541
 O   66.344346   -3.688908  -32.048853
 O   72.252118   -5.732261  -32.692087
 H   60.266289    3.852810  -28.764567
 H   58.031371    4.638156  -28.067042
 H   56.104911    3.067137  -28.080613
 H   56.441386    0.714529  -28.796913
 H   58.655573   -0.071560  -29.490552
 H   61.725122    2.230136  -29.526411
 H   60.641317   -0.586565  -30.049844
 H   63.711134    1.722032  -30.107400
 H   65.912331    0.940650  -30.796732
 H   64.343834   -2.999128  -31.497850
 H   62.116249   -2.211651  -30.801273
 H   67.256223   -0.713273  -31.550990
 H   69.092260   -2.184043  -31.554974
 H   68.650281   -2.117136  -33.256793
 H   68.395894   -4.626686  -33.259778
 H   68.957223   -4.682118  -31.602793
 H   71.119804   -3.525018  -32.320399
 H   70.569257   -3.620118  -33.991849
 H   69.598812   -6.056821  -34.062185
