37 
1flr_ligand_dft.xyz
 C   -1.303636    3.781364   -0.337534
 O   -1.776469    5.044875   -0.339858
 C    0.044981    3.487376   -0.172371
 C    0.448049    2.157192   -0.180786
 O    1.773148    1.934857   -0.020817
 C    2.288402    0.671202   -0.016358
 C    3.622156    0.535146    0.139331
 C    4.245730   -0.785622    0.167734
 O    5.452968   -0.947638    0.299963
 C    3.324889   -1.937577    0.032543
 C    1.999353   -1.782307   -0.126205
 C    1.388231   -0.463868   -0.173717
 C    0.046838   -0.248406   -0.337691
 C   -0.462989    1.104935   -0.349932
 C   -1.819821    1.441007   -0.523771
 C   -2.241497    2.751128   -0.517474
 C   -0.902285   -1.382271   -0.536516
 C   -0.905407   -2.025468   -1.777063
 C   -1.798863   -3.056231   -2.042998
 C   -2.716266   -3.446819   -1.072091
 C   -2.730541   -2.806160    0.159265
 C   -1.822239   -1.784816    0.446472
 C   -1.941977   -1.168209    1.818747
 O   -0.827659   -0.688898    2.395462
 O   -2.993662   -1.125525    2.403401
 H   -1.052706    5.667108   -0.195538
 H    0.792147    4.263129   -0.036011
 H    4.258302    1.405321    0.251205
 H    3.781167   -2.921541    0.069003
 H    1.348705   -2.645691   -0.225273
 H   -2.547496    0.648643   -0.663134
 H   -3.286018    3.009820   -0.645124
 H   -0.200389   -1.702080   -2.536938
 H   -1.781716   -3.547174   -3.010931
 H   -3.421990   -4.245910   -1.274818
 H   -3.447296   -3.084061    0.924381
 H   -0.047975   -0.838492    1.840468
