37 
1flr_ligand_ani-2x.xyz
 C   28.919879   22.323020   42.352708
 O   30.117227   22.037012   42.922827
 C   28.065246   21.337695   41.882496
 C   26.857059   21.700889   41.302388
 O   26.090688   20.681364   40.833051
 C   24.948243   20.949456   40.123562
 C   24.326164   19.868161   39.590188
 C   23.091899   20.021177   38.834910
 O   22.497760   19.073067   38.334390
 C   22.590146   21.401005   38.703106
 C   23.242697   22.437579   39.265378
 C   24.466537   22.294857   40.013747
 C   25.140821   23.335925   40.685147
 C   26.443372   23.041588   41.218912
 C   27.359465   24.018051   41.681459
 C   28.566961   23.676566   42.240778
 C   24.584876   24.698143   40.807422
 C   24.528583   25.482216   39.651398
 C   24.131254   26.813839   39.694457
 C   23.771456   27.391257   40.907110
 C   23.800163   26.622558   42.062566
 C   24.174574   25.283168   42.030490
 C   24.098114   24.570037   43.371039
 O   24.046438   23.228574   43.366416
 O   24.061691   25.175117   44.411741
 H   30.238225   21.078897   42.938031
 H   28.318137   20.281896   41.941673
 H   24.739859   18.875618   39.722770
 H   21.671733   21.541112   38.144506
 H   22.827164   23.435707   39.165448
 H   27.083567   25.063011   41.571890
 H   29.260810   24.429089   42.600935
 H   24.799319   25.030118   38.698928
 H   24.103924   27.398201   38.779437
 H   23.467320   28.433165   40.952718
 H   23.527033   27.038395   43.028048
 H   24.033894   22.887370   42.454931
