37 
1flr_ligand_xtb.xyz
 C   28.880313   22.330622   42.451733
 O   30.062309   22.053601   43.031704
 C   28.118386   21.358300   41.823075
 C   26.902705   21.695858   41.240084
 O   26.222699   20.706447   40.633879
 C   25.021715   20.955001   40.036401
 C   24.388858   19.926864   39.422823
 C   23.103624   20.089857   38.777729
 O   22.522658   19.177733   38.201607
 C   22.530280   21.436834   38.871297
 C   23.164110   22.452755   39.480215
 C   24.458301   22.284395   40.077344
 C   25.152319   23.302282   40.693651
 C   26.426409   23.021749   41.289401
 C   27.228745   23.991673   41.912199
 C   28.427782   23.657993   42.483646
 C   24.621154   24.679623   40.741414
 C   24.500470   25.406845   39.561089
 C   24.058495   26.717342   39.582302
 C   23.746324   27.328262   40.786527
 C   23.870556   26.620969   41.967637
 C   24.289814   25.294488   41.955160
 C   24.387211   24.583936   43.267331
 O   23.953564   23.309713   43.290597
 O   24.802221   25.111884   44.259875
 H   30.266885   21.112228   42.960756
 H   28.447452   20.330749   41.773292
 H   24.841370   18.948092   39.407115
 H   21.558068   21.573825   38.421712
 H   22.712297   23.434227   39.533228
 H   26.894150   25.016603   41.938948
 H   29.041543   24.398253   42.968935
 H   24.769468   24.936956   38.626554
 H   23.966609   27.264440   38.656423
 H   23.411220   28.353658   40.804182
 H   23.640059   27.077507   42.917963
 H   23.602159   23.013335   42.439172
