37 
1flr_ligand_aiqm1.xyz
 C   29.015577   22.358018   42.282143
 O   30.246429   22.104704   42.791281
 C   28.241945   21.370829   41.694470
 C   26.987893   21.712185   41.193583
 O   26.277388   20.706221   40.627394
 C   25.032759   20.932736   40.109847
 C   24.371484   19.881177   39.577937
 C   23.043418   20.054633   39.009624
 O   22.418726   19.118785   38.520436
 C   22.470404   21.417680   39.039124
 C   23.144305   22.455119   39.569448
 C   24.474280   22.284086   40.150670
 C   25.182990   23.293229   40.717860
 C   26.492414   23.019607   41.268041
 C   27.306363   23.999437   41.869800
 C   28.552335   23.681243   42.371706
 C   24.661739   24.687845   40.763019
 C   24.816726   25.500667   39.633027
 C   24.395547   26.827365   39.651308
 C   23.834541   27.366639   40.805812
 C   23.688327   26.571087   41.934076
 C   24.077751   25.229711   41.919134
 C   23.884067   24.460762   43.199965
 O   23.335109   23.233060   43.103682
 O   24.160493   24.923521   44.271198
 H   30.450237   21.172342   42.694645
 H   28.571259   20.342921   41.613224
 H   24.809990   18.896121   39.564560
 H   21.485839   21.542485   38.608609
 H   22.723565   23.454617   39.568586
 H   26.947515   25.016984   41.942829
 H   29.181082   24.422597   42.840936
 H   25.273233   25.088709   38.742628
 H   24.517320   27.437489   38.767696
 H   23.522325   28.401163   40.830313
 H   23.276939   26.977310   42.847905
 H   23.119986   23.011813   42.190481
