17 
1fsg_ligand_xtb.xyz
 C   20.153306   35.035260   28.686186
 C   18.784129   35.113050   28.733431
 N   18.249788   34.516251   27.641318
 C   19.265207   34.039442   26.864694
 C   19.213369   33.338400   25.623680
 O   18.244004   33.004396   24.966888
 N   20.511409   33.045726   25.184385
 C   21.662918   33.375887   25.856858
 N   22.833920   32.933895   25.308889
 N   21.692867   34.016926   26.978102
 C   20.477554   34.350246   27.497242
 H   20.844413   35.417224   29.408607
 H   18.157877   35.559260   29.481757
 H   17.272574   34.424740   27.418599
 H   20.571093   32.521378   24.320429
 H   23.660657   33.321384   25.732608
 H   22.872917   32.785536   24.314328
