37 
1fv0_ligand_aiqm1.xyz
 C   15.606460   22.861497   40.488878
 C   14.244180   22.805179   40.204615
 C   13.373702   22.854224   41.274821
 C   13.815944   22.886645   42.582012
 C   15.169211   22.964308   42.920622
 C   16.072179   23.049003   41.815043
 C   15.671319   22.941332   44.288825
 C   17.063681   23.068778   44.509036
 C   17.936124   23.338736   43.402290
 C   17.447659   23.357893   42.142169
 C   14.833812   22.776992   45.412214
 C   15.350960   22.744025   46.693427
 C   16.731508   22.858358   46.903170
 C   17.573284   23.007818   45.817812
 C   11.612998   23.091667   42.572974
 C   16.481874   22.599102   39.291047
 C   19.640521   21.913819   45.915511
 O   18.921055   23.141427   46.070181
 O   12.007131   22.767948   41.243744
 O   12.727926   22.789902   43.414487
 O   17.509308   21.742828   39.498844
 O   16.237863   23.004030   38.192537
 O   17.234779   22.816018   48.160952
 O   17.836864   24.608666   40.261123
 O   19.546083   23.735874   41.271161
 N   18.351374   23.928911   41.134158
 H   13.905827   22.708035   39.182715
 H   18.972082   23.598389   43.580962
 H   13.771300   22.669527   45.274983
 H   14.709410   22.618574   47.556373
 H   11.401648   24.162849   42.639734
 H   10.766222   22.478904   42.860882
 H   19.238528   21.149553   46.584878
 H   19.574851   21.556793   44.886245
 H   20.674230   22.129879   46.166273
 H   17.508999   21.432468   40.411012
 H   18.171205   23.037849   48.086090
