37 
1fv0_ligand_ani-2x.xyz
 C   15.628578   22.739990   40.529569
 C   14.278088   22.755057   40.220682
 C   13.388576   22.923147   41.259836
 C   13.808472   23.000513   42.574132
 C   15.158985   22.998891   42.931780
 C   16.079802   23.076958   41.845471
 C   15.666428   22.936033   44.299121
 C   17.050967   23.102170   44.515044
 C   17.922675   23.436698   43.424975
 C   17.419623   23.494330   42.173517
 C   14.834356   22.695942   45.417057
 C   15.352021   22.614118   46.688069
 C   16.731808   22.755412   46.900837
 C   17.566408   22.975337   45.827511
 C   11.604735   23.277537   42.512804
 C   16.524121   22.281270   39.410354
 C   19.628045   21.885951   45.773121
 O   18.917897   23.083515   46.075665
 O   12.024359   22.934354   41.200025
 O   12.701976   23.047606   43.383075
 O   17.678843   21.702943   39.773316
 O   16.198551   22.353325   38.254519
 O   17.233437   22.664477   48.160056
 O   17.673578   24.617365   40.198534
 O   19.466331   24.136042   41.323932
 N   18.262503   24.125600   41.142425
 H   13.971643   22.603274   39.191649
 H   18.963602   23.662830   43.608296
 H   13.768231   22.579505   45.266202
 H   14.714694   22.435915   47.549620
 H   11.325846   24.341858   42.546918
 H   10.766641   22.638940   42.802100
 H   19.346191   21.083521   46.467922
 H   19.428269   21.557810   44.746476
 H   20.688976   22.113376   45.888276
 H   17.742484   21.676365   40.738898
 H   18.174363   22.889827   48.090018
