18 
1fv9_ligand_ani-2x.xyz
 C   21.097249   16.116389   33.469726
 C   21.096222   17.429612   33.926100
 C   19.896883   18.131050   33.889819
 C   18.724877   17.516802   33.403145
 C   18.721449   16.208580   32.947481
 C   19.922623   15.511605   32.985746
 N   19.630992   19.436466   34.293531
 C   18.360988   19.599647   34.047193
 N   17.745128   18.506092   33.484849
 N   17.632055   20.737923   34.347942
 O   22.286985   15.451727   33.516260
 H   22.012582   17.878877   34.297380
 H   17.820099   15.733746   32.569622
 H   19.957358   14.481119   32.635529
 H   16.747879   18.349742   33.495732
 H   17.026418   21.056019   33.601994
 H   18.246159   21.481252   34.658338
 H   22.159053   14.558352   33.175612
