10 
1fwe_ligand_xtb.xyz
 C   70.731127  107.997329   71.568839
 C   69.507327  107.132447   71.722923
 O   68.931382  106.550288   70.822455
 N   69.041390  107.051918   72.984660
 O   67.957275  106.201736   73.233242
 H   70.867670  108.230347   70.517056
 H   70.630908  108.916446   72.139550
 H   71.605833  107.454957   71.922900
 H   69.493846  107.362655   73.826827
 H   67.727441  105.881677   72.335348
