10 
1fwe_ligand_aiqm1.xyz
 C   70.701037  108.037562   71.596930
 C   69.396483  107.321001   71.794515
 O   68.560482  107.153811   70.918769
 N   69.147897  106.893945   73.063458
 O   68.042063  106.055200   73.192633
 H   71.275426  107.517508   70.832110
 H   70.494017  109.040151   71.229407
 H   71.283342  108.102009   72.515352
 H   69.908576  106.584195   73.646239
 H   67.684876  106.074420   72.284387
