57 
1g2m_ligand_ani-2x.xyz
 N   11.000344    6.540370   28.303527
 N   12.891939    7.496181   27.402825
 C   11.524767    7.263269   27.390784
 C   10.779512    7.958465   26.297695
 C    9.671178    7.362088   25.699705
 C    8.964641    7.992379   24.683948
 C    9.348492    9.267299   24.249537
 C   10.451042    9.878435   24.866285
 C   11.158702    9.230260   25.861702
 N    8.722646    9.951365   23.199219
 C    7.451795    9.474432   22.685790
 N    6.667138    7.291508   21.825418
 C    7.561191    8.245162   21.823136
 N    8.582263    8.044561   20.924322
 C    8.318383    6.833081   20.312070
 C    7.118324    6.381022   20.883036
 C    8.993886    6.099088   19.336134
 C    8.430712    4.897208   18.941825
 C    7.225131    4.423122   19.498119
 C    6.567388    5.168068   20.470285
 C    9.705514    8.918457   20.647162
 C    6.589485    3.106570   19.077998
 N    7.314388    2.344775   18.089875
 C    7.098704    2.307651   16.728598
 N    7.942875    1.549817   16.082646
 C    8.784743    1.040870   17.063079
 C    8.407933    1.527344   18.326318
 C    9.879606    0.180466   16.955114
 C   10.563686   -0.156464   18.111197
 C   10.177727    0.348711   19.365786
 C    9.091389    1.202529   19.494026
 C    5.990359    3.081029   16.100708
 H    9.988198    6.496447   28.192473
 H   13.379922    6.882439   28.042626
 H   13.333231    7.564839   26.496100
 H    9.360064    6.367849   26.018254
 H    8.101733    7.490966   24.258173
 H   10.756401   10.869799   24.538526
 H   12.010978    9.717568   26.328689
 H    8.715019   10.946954   23.376606
 H    7.006393   10.286380   22.096927
 H    6.733302    9.234576   23.484432
 H    9.926096    6.448091   18.899444
 H    8.932634    4.309714   18.179051
 H    5.637054    4.821820   20.912936
 H    9.353106    9.949525   20.570682
 H   10.456806    8.861117   21.439635
 H   10.151875    8.629360   19.693756
 H    5.581580    3.287823   18.689617
 H    6.455633    2.467577   19.958415
 H   10.174122   -0.202874   15.982939
 H   11.419016   -0.824462   18.046535
 H   10.741304    0.063106   20.249551
 H    8.794460    1.600538   20.461446
 H    5.013650    2.750059   16.473334
 H    6.087731    4.150909   16.316847
 H    6.021110    2.930466   15.019937
