37 
1g4k_ligand_xtb.xyz
 N   18.950222   30.590360   48.712692
 C   18.580993   31.249405   49.866680
 O   18.968268   30.925508   50.956025
 N   17.682308   32.277160   49.665860
 C   17.163467   32.705311   48.460680
 O   16.208480   33.434180   48.421975
 C   17.965937   32.269067   47.246035
 C   18.550478   30.880616   47.421562
 O   18.717520   30.090116   46.532348
 C   17.111602   32.320860   45.975238
 C   19.109628   33.285163   47.148486
 C   20.430142   32.892797   46.966863
 C   21.434609   33.834431   46.863404
 C   21.139163   35.192894   46.940886
 C   19.814777   35.591494   47.098912
 C   18.816651   34.643245   47.203032
 O   22.175462   36.060184   46.774175
 C   22.128401   37.323410   47.315623
 C   22.716402   38.349397   46.584347
 C   22.763797   39.627455   47.108477
 C   22.226790   39.890675   48.357656
 C   21.652707   38.864638   49.088692
 C   21.603579   37.580625   48.577143
 H   19.463620   29.725743   48.849814
 H   17.268316   32.666201   50.506657
 H   16.685051   33.311714   45.854634
 H   17.728674   32.082019   45.113746
 H   16.303417   31.595983   46.038652
 H   20.688804   31.848341   46.887488
 H   22.459224   33.532862   46.715104
 H   19.565517   36.641687   47.127370
 H   17.795370   34.970689   47.324614
 H   23.131677   38.125859   45.614132
 H   23.219426   40.421576   46.536367
 H   22.260733   40.890353   48.762974
 H   21.243906   39.060328   50.068751
 H   21.171179   36.776454   49.154810
