37 
1g4k_ligand_aiqm1.xyz
 N   18.747341   30.423745   48.509555
 C   18.282653   30.947380   49.704081
 O   18.514155   30.447318   50.774748
 N   17.481828   32.065073   49.550603
 C   17.118389   32.673471   48.357114
 O   16.196394   33.452544   48.323319
 C   18.019844   32.362642   47.150707
 C   18.525145   30.917444   47.231029
 O   18.786168   30.240702   46.266310
 C   17.242877   32.570080   45.850716
 C   19.222479   33.318766   47.247746
 C   20.543573   32.866952   47.151708
 C   21.605816   33.759039   47.220690
 C   21.363448   35.119805   47.386811
 C   20.054399   35.590304   47.479548
 C   18.996148   34.688096   47.406784
 O   22.469767   35.921244   47.445289
 C   22.264743   37.278496   47.618929
 C   22.175688   38.104806   46.503040
 C   22.041895   39.479172   46.682244
 C   21.989704   40.019359   47.964714
 C   22.080205   39.181292   49.073209
 C   22.214645   37.805514   48.905772
 H   19.186022   29.518232   48.577146
 H   16.992620   32.360727   50.381478
 H   16.965434   33.615672   45.741956
 H   17.854877   32.278965   45.000689
 H   16.328710   31.973048   45.849509
 H   20.767224   31.817795   47.005468
 H   22.627091   33.415428   47.142250
 H   19.860365   36.646157   47.604461
 H   17.983045   35.063847   47.476767
 H   22.215421   37.663009   45.516784
 H   21.973181   40.125235   45.817850
 H   21.880003   41.086053   48.099424
 H   22.041137   39.595494   50.071294
 H   22.283866   37.135893   49.752159
