54 
1g74_ligand_aiqm1.xyz
 C  -49.626757   67.372497  -10.372023
 O  -50.416663   68.471174  -10.406369
 O  -49.924560   66.400385  -11.011078
 C  -48.364635   67.468714   -9.543182
 C  -47.193142   67.975278  -10.396254
 C  -45.857232   68.033021   -9.647287
 C  -45.039306   66.739627   -9.680175
 C  -45.618594   65.551058   -8.904246
 C  -45.936916   65.845519   -7.437076
 C  -44.730477   66.355594   -6.648947
 C  -45.058713   66.589081   -5.202642
 C  -45.129747   67.784433   -4.600816
 C  -44.867715   69.104758   -5.275747
 C  -46.090724   69.641973   -6.020446
 C  -45.785483   70.920860   -6.794283
 C  -46.928778   71.385807   -7.693476
 C  -48.185158   71.791447   -6.927055
 C  -49.287146   72.345931   -7.826365
 C  -49.868430   71.316507   -8.788928
 C  -50.985651   71.889439   -9.653729
 H  -50.053458   69.174690   -9.860766
 H  -48.149267   66.469467   -9.175842
 H  -48.515756   68.124832   -8.679193
 H  -47.446668   68.977548  -10.759457
 H  -47.093259   67.338065  -11.278515
 H  -46.026271   68.340440   -8.609250
 H  -45.248953   68.822271  -10.094805
 H  -44.039375   66.957246   -9.293340
 H  -44.898481   66.436754  -10.722510
 H  -44.888251   64.736796   -8.943794
 H  -46.514118   65.176699   -9.408060
 H  -46.309525   64.933801   -6.963473
 H  -46.748371   66.576202   -7.363861
 H  -44.361555   67.280377   -7.105568
 H  -43.924322   65.618736   -6.723438
 H  -45.291689   65.703376   -4.617201
 H  -45.415487   67.809760   -3.553505
 H  -44.040471   69.003467   -5.987769
 H  -44.547594   69.840241   -4.535195
 H  -46.903131   69.818258   -5.308296
 H  -46.457930   68.876672   -6.716860
 H  -44.898502   70.751266   -7.412220
 H  -45.526391   71.719213   -6.088809
 H  -47.172797   70.584634   -8.404309
 H  -46.592628   72.235524   -8.293972
 H  -47.916232   72.544446   -6.181340
 H  -48.573671   70.929913   -6.370990
 H  -48.893594   73.190616   -8.403275
 H  -50.095235   72.742173   -7.206522
 H  -50.249623   70.466829   -8.206819
 H  -49.067161   70.927541   -9.430382
 H  -51.804246   72.258389   -9.033224
 H  -50.619111   72.726362  -10.250647
 H  -51.390050   71.140493  -10.334270
