54 
1g74_ligand_dft.xyz
 C    3.525671   -1.495133   -0.829745
 O    4.533791   -0.912027   -0.138371
 O    3.774585   -2.166009   -1.794577
 C    2.109110   -1.221499   -0.345601
 C    1.929119   -1.033665    1.165563
 C    0.464228   -0.871027    1.609349
 C   -0.270981   -2.173838    1.953517
 C   -0.496197   -3.163278    0.802823
 C   -1.322671   -2.623884   -0.370093
 C   -2.774806   -2.284474    0.000690
 C   -3.560367   -1.804583   -1.187852
 C   -4.100544   -0.594162   -1.344016
 C   -4.027785    0.535583   -0.345824
 C   -2.670360    1.252595   -0.369658
 C   -2.566209    2.385596    0.654728
 C   -1.131112    2.869359    0.883290
 C   -0.481824    3.534611   -0.334676
 C    1.029593    3.741304   -0.179626
 C    1.824208    2.443061   -0.338674
 C    3.326314    2.613201   -0.125795
 H    4.184149   -0.423715    0.618799
 H    1.504320   -2.046489   -0.723658
 H    1.759746   -0.320430   -0.866831
 H    2.470243   -0.129010    1.481601
 H    2.384416   -1.874504    1.705673
 H   -0.086170   -0.314482    0.839683
 H    0.442565   -0.237721    2.504211
 H   -1.239278   -1.909452    2.396480
 H    0.289088   -2.686118    2.747151
 H   -1.001690   -4.049418    1.209314
 H    0.471810   -3.522347    0.431784
 H   -1.327169   -3.373046   -1.172117
 H   -0.849248   -1.730673   -0.798319
 H   -2.789460   -1.530486    0.794953
 H   -3.248129   -3.185946    0.416401
 H   -3.661552   -2.524442   -2.000610
 H   -4.611293   -0.379687   -2.281544
 H   -4.211521    0.161422    0.669689
 H   -4.824064    1.261452   -0.550499
 H   -2.482075    1.628308   -1.382573
 H   -1.883405    0.511685   -0.172100
 H   -2.971639    2.032927    1.612850
 H   -3.202076    3.225985    0.343292
 H   -0.529208    2.008104    1.203239
 H   -1.112623    3.578807    1.721152
 H   -0.975012    4.498636   -0.513582
 H   -0.657519    2.930045   -1.234188
 H    1.243165    4.186235    0.802868
 H    1.382742    4.462447   -0.927961
 H    1.640514    2.042254   -1.345119
 H    1.441100    1.693363    0.365673
 H    3.738544    3.364409   -0.808524
 H    3.545887    2.940004    0.897388
 H    3.865497    1.677571   -0.311390
