27 
1gcz_ligand_ani-2x.xyz
 C   64.223946   22.507567   18.660576
 C   63.476556   23.826135   18.596526
 O   61.286631   24.786181   21.089898
 O   62.375003   23.701147   19.513243
 C   60.803197   29.563706   19.044665
 C   61.223732   27.123305   19.475107
 C   60.361519   28.946685   16.356602
 O   60.721440   26.673204   16.791629
 C   60.903197   28.220695   18.622005
 C   60.670023   27.945754   17.271644
 C   61.021702   25.585083   17.577827
 C   61.662536   24.757448   19.944210
 O   59.981893   31.291455   15.977950
 O   60.977317   24.501510   17.051288
 C   60.498051   30.570417   18.160086
 C   61.343707   25.861650   18.985405
 C   60.277750   30.257737   16.804602
 H   64.582484   22.324495   19.677321
 H   63.558445   21.689969   18.371764
 H   65.082049   22.521586   17.981482
 H   63.089394   24.018192   17.596645
 H   64.115730   24.665651   18.902792
 H   60.975113   29.794426   20.093233
 H   61.385715   27.280560   20.539197
 H   60.190257   28.675931   15.317379
 H   59.853001   30.952981   15.082682
 H   60.421213   31.606130   18.475340
