27 
1gcz_ligand_xtb.xyz
 C   64.468015   22.964038   18.840921
 C   63.227341   23.757417   18.464297
 O   60.665694   24.425039   20.766230
 O   62.290249   23.627517   19.528498
 C   60.916686   29.428146   19.109010
 C   61.169919   26.964766   19.428000
 C   60.442745   28.969598   16.400370
 O   60.682225   26.659604   16.722182
 C   60.930830   28.113326   18.620992
 C   60.688805   27.899583   17.253004
 C   60.910169   25.529780   17.461612
 C   61.358709   24.532922   19.787780
 O   60.200423   31.334461   16.127432
 O   60.851489   24.469400   16.891294
 C   60.673519   30.483949   18.270923
 C   61.197137   25.724060   18.880564
 C   60.433840   30.260881   16.905607
 H   64.912907   23.365282   19.747776
 H   64.199494   21.926689   19.016778
 H   65.193315   23.013839   18.034047
 H   62.777341   23.362323   17.547785
 H   63.476097   24.814831   18.308589
 H   61.098602   29.594200   20.159451
 H   61.338886   27.089421   20.488387
 H   60.257923   28.772729   15.354758
 H   60.041393   31.066536   15.213107
 H   60.657847   31.499261   18.631706
