24 
1gfz_ligand_ani-2x.xyz
 N   38.948223   36.985642   29.987559
 C   38.497767   35.937739   29.165788
 C   39.887437   37.944615   29.400389
 C   38.591964   37.217409   31.329439
 N   37.603521   35.033168   29.739467
 O   38.866072   35.821713   28.012817
 C   37.094358   33.922211   28.950045
 C   37.208653   35.195825   31.045551
 C   37.667514   36.232510   31.822609
 N   36.350027   34.402638   31.738490
 O   39.058869   38.169678   31.936796
 N   37.070623   36.077786   33.047054
 C   36.296892   34.967218   32.930261
 C   37.252557   36.943166   34.198117
 H   39.463129   38.949760   29.433335
 H   40.819977   37.948077   29.967632
 H   40.069219   37.642117   28.371432
 H   37.369982   32.971877   29.415413
 H   36.004271   33.976108   28.883903
 H   37.537901   34.000639   27.959387
 H   35.705378   34.611963   33.765893
 H   38.310047   36.987813   34.466400
 H   36.910892   37.954216   33.966235
 H   36.674126   36.536911   35.028687
