41 
1gj5_ligand_ani-2x.xyz
 C   11.655693  -11.457830   22.733443
 C   11.963508  -10.173107   22.240797
 C   12.825994   -9.989048   21.172075
 C   13.397674  -11.131143   20.615679
 C   13.115278  -12.421803   21.092346
 C   12.229045  -12.588171   22.159620
 C   10.715576  -11.602552   23.889405
 N    9.886393  -12.711228   23.825607
 N   10.666971  -10.833066   24.906665
 N   14.298130  -11.326318   19.588767
 N   13.795232  -13.366443   20.348574
 C   14.481814  -12.686834   19.466880
 C   15.342096  -13.297245   18.440020
 C   15.219746  -14.666598   18.207665
 C   15.944524  -15.286140   17.199706
 C   16.805370  -14.533715   16.410086
 C   16.964025  -13.162101   16.614661
 C   16.262586  -12.566832   17.666703
 O   16.490647  -11.231987   17.907141
 C   17.864162  -12.366493   15.732065
 C   17.454735  -11.145566   15.188132
 C   18.287810  -10.441098   14.327829
 C   19.552899  -10.931367   14.016178
 C   19.976269  -12.138668   14.564452
 C   19.132559  -12.853610   15.406438
 H   11.489686   -9.305438   22.696512
 H   13.049725   -8.993157   20.799497
 H   12.000718  -13.575991   22.548892
 H    9.155595  -12.687432   24.525109
 H    9.555389  -12.960035   22.903716
 H   11.362412  -10.092160   24.829352
 H   14.572645  -10.644290   18.899238
 H   14.535075  -15.228250   18.836754
 H   15.837053  -16.352433   17.027537
 H   17.353729  -15.012622   15.602621
 H   16.741318  -11.118941   18.835352
 H   16.475434  -10.753967   15.443962
 H   17.950871   -9.497394   13.906936
 H   20.206512  -10.374470   13.349713
 H   20.961475  -12.531985   14.327608
 H   19.468630  -13.796470   15.834267
