32 
1gja_ligand_xtb.xyz
 C    8.563277    0.456233   25.402700
 C    9.674953    0.507816   24.563552
 C   10.165259    1.716180   24.122539
 C    9.554146    2.913267   24.504020
 C    8.431353    2.866187   25.326356
 C    7.947257    1.649674   25.767268
 C    8.072989   -0.859084   25.856426
 N    7.330129   -0.867921   27.012386
 N    8.328546   -1.877791   25.144212
 N   10.106733    4.096992   24.022182
 C    9.731677    5.379588   24.277078
 O    8.810343    5.686569   25.010468
 C   10.536996    6.437987   23.585271
 C   10.121787    7.748015   23.828108
 C   10.754355    8.837843   23.268123
 C   11.841240    8.635270   22.434833
 C   12.274564    7.349156   22.177859
 C   11.639316    6.246868   22.739912
 O   12.109957    4.993191   22.453699
 H   10.135280   -0.421425   24.268936
 H   11.030668    1.746023   23.474777
 H    7.944120    3.782866   25.612674
 H    7.057947    1.639868   26.380543
 H    7.105568   -1.762353   27.417839
 H    7.401839   -0.097209   27.653585
 H    7.960221   -2.751710   25.513074
 H   10.899087    3.967923   23.406879
 H    9.272265    7.875151   24.482273
 H   10.405357    9.836729   23.477705
 H   12.353413    9.471857   21.984321
 H   13.124736    7.185512   21.527129
 H   12.868621    5.063228   21.859973
