32 
1gja_ligand_ani-2x.xyz
 C    8.543580    0.434058   25.390871
 C    9.646586    0.468538   24.534867
 C   10.154694    1.678915   24.096250
 C    9.561014    2.884607   24.488085
 C    8.443298    2.861695   25.326234
 C    7.952751    1.640642   25.766866
 C    8.015734   -0.879934   25.858395
 N    7.321713   -0.833587   27.064988
 N    8.203082   -1.915041   25.134179
 N   10.138384    4.068072   24.000468
 C    9.722342    5.352556   24.206240
 O    8.744800    5.652654   24.879965
 C   10.535339    6.447841   23.552200
 C   10.084716    7.751965   23.790185
 C   10.725698    8.862109   23.258509
 C   11.851530    8.679636   22.463342
 C   12.323764    7.399560   22.208053
 C   11.674410    6.288984   22.745892
 O   12.153542    5.030457   22.484052
 H   10.093394   -0.469148   24.220901
 H   11.018941    1.691791   23.435493
 H    7.978739    3.790423   25.627337
 H    7.070730    1.631422   26.402549
 H    7.144438   -1.734238   27.489045
 H    7.650009   -0.147602   27.732003
 H    7.784317   -2.744452   25.558429
 H   10.956635    3.950685   23.420184
 H    9.203061    7.861613   24.414877
 H   10.348822    9.859786   23.463728
 H   12.367096    9.536368   22.038000
 H   13.206068    7.256324   21.584712
 H   12.934773    5.095802   21.919800
