41 
1gjc_ligand_xtb.xyz
 C   11.747102  -11.459456   22.729103
 C   11.747725  -10.238116   22.037327
 C   12.433558  -10.067663   20.853441
 C   13.136109  -11.159654   20.372897
 C   13.150365  -12.399996   21.056173
 C   12.447321  -12.553092   22.244054
 C   11.002303  -11.557844   24.013213
 N   10.424281  -12.770008   24.261664
 N   10.911575  -10.649439   24.898997
 N   13.930523  -11.348290   19.271585
 N   13.912188  -13.297802   20.358976
 C   14.356176  -12.662388   19.311080
 C   15.179998  -13.260989   18.271378
 C   14.981789  -14.606181   17.962592
 C   15.705516  -15.203155   16.952052
 C   16.633286  -14.461987   16.240703
 C   16.875328  -13.126412   16.541423
 C   16.151461  -12.526148   17.579350
 O   16.447261  -11.235066   17.916043
 C   17.892211  -12.371621   15.789658
 C   17.624608  -11.099062   15.294809
 C   18.584232  -10.410766   14.575843
 C   19.824357  -10.980858   14.343484
 C   20.100177  -12.246597   14.833033
 C   19.141034  -12.938771   15.548342
 H   11.178385   -9.413765   22.442758
 H   12.421125   -9.125454   20.326091
 H   12.472162  -13.489412   22.777628
 H    9.826698  -12.799854   25.071368
 H   10.169328  -13.351360   23.482380
 H   11.436371   -9.806832   24.689544
 H   14.040374  -10.706930   18.502691
 H   14.246388  -15.153397   18.530005
 H   15.544070  -16.242405   16.710829
 H   17.185448  -14.918502   15.432820
 H   16.158619  -11.060515   18.821009
 H   16.656834  -10.653635   15.466136
 H   18.363276   -9.424677   14.193588
 H   20.573873  -10.440706   13.783919
 H   21.067390  -12.695166   14.658067
 H   19.364174  -13.920033   15.941944
