26 
1gt1_ligand_aiqm1.xyz
 C    0.471575   -0.649559    5.533444
 C    1.207356   -0.230186    4.380298
 C   -0.917317   -0.315605    5.643282
 C    0.590287    0.480973    3.396906
 C   -1.542035    0.404781    4.559038
 C   -0.795972    0.793403    3.479970
 C   -1.084817   -2.466784   10.005625
 C    0.291071   -2.829424    9.882218
 C   -1.707033   -1.771445    9.012020
 C    0.998763   -2.481499    8.770701
 C   -0.998276   -1.392582    7.827740
 C    0.380937   -1.750411    7.707590
 C    1.084360   -1.364123    6.564192
 C   -1.615173   -0.684611    6.793396
 N   -2.899106    0.741411    4.661507
 H    2.258054   -0.482650    4.314204
 H    1.144735    0.809169    2.527036
 H   -1.262557    1.349762    2.674637
 H   -1.629263   -2.748826   10.897248
 H    0.767215   -3.381956   10.681807
 H   -2.751447   -1.493693    9.106300
 H    2.044455   -2.751643    8.674149
 H    2.135838   -1.617022    6.478581
 H   -2.650706   -0.395571    6.926488
 H   -3.467203    0.021270    5.079917
 H   -3.293542    1.027724    3.779806
