26 
1gt1_ligand_xtb.xyz
 C    0.466462   -0.643161    5.539351
 C    1.194165   -0.237224    4.394094
 C   -0.925459   -0.319503    5.644247
 C    0.578838    0.457202    3.397052
 C   -1.543729    0.392542    4.562145
 C   -0.786868    0.766799    3.477342
 C   -1.075311   -2.486600    9.985141
 C    0.291430   -2.819326    9.873024
 C   -1.701126   -1.799632    8.990332
 C    1.001103   -2.456731    8.769770
 C   -0.998094   -1.405628    7.824262
 C    0.385681   -1.740238    7.711875
 C    1.080317   -1.346476    6.573216
 C   -1.614981   -0.705183    6.789516
 N   -2.872069    0.760547    4.637637
 H    2.242887   -0.487102    4.332857
 H    1.132794    0.770557    2.524042
 H   -1.255580    1.309175    2.667885
 H   -1.617952   -2.784135   10.870765
 H    0.766452   -3.365063   10.675472
 H   -2.748223   -1.542366    9.072832
 H    2.048589   -2.707563    8.678650
 H    2.130746   -1.589332    6.487113
 H   -2.659398   -0.453402    6.911632
 H   -3.477903    0.184606    5.197484
 H   -3.282574    1.068139    3.770362
