35 
1h1p_ligand_aiqm1.xyz
 N    2.511718   29.114456    7.433259
 C    2.917340   30.146438    6.658439
 N    2.347727   31.338476    6.519824
 C    1.266915   31.456476    7.299742
 C    0.736100   30.498765    8.163330
 C    1.435534   29.282608    8.186680
 O    1.006128   28.295359    8.964926
 C    1.791263   27.091445    8.961350
 N   -0.393102   30.980328    8.807971
 C   -0.528060   32.187771    8.341342
 N    0.442126   32.536377    7.422639
 N    4.081022   29.934970    5.965721
 C    1.143535   26.113452    9.920754
 C   -0.237860   25.673555    9.437461
 C   -0.864364   24.672193   10.406271
 C    0.045243   23.461674   10.604807
 C    1.424333   23.898568   11.093348
 C    2.049094   24.897983   10.123292
 H    1.824138   26.689358    7.944886
 H    2.815152   27.331416    9.259044
 H   -1.305764   32.878948    8.617722
 H    0.547707   33.411356    6.942659
 H    4.223514   30.542401    5.177807
 H    4.327969   28.968900    5.838729
 H    1.025448   26.623688   10.883718
 H   -0.885937   26.542569    9.308462
 H   -0.131052   25.203195    8.451876
 H   -1.026862   25.161101   11.372257
 H   -1.844204   24.357003   10.041516
 H   -0.402322   22.756196   11.308261
 H    0.154706   22.935160    9.650470
 H    1.325782   24.364930   12.079195
 H    2.081190   23.034614   11.214519
 H    2.202868   24.406969    9.154379
 H    3.032976   25.214304   10.482345
