45 
1h1q_ligand_ani-2x.xyz
 C    7.979311   43.513883   49.608443
 C   10.449256   46.269017   51.841287
 C    4.882127   44.901467   51.688008
 C    3.902591   45.602332   52.617987
 C    2.458284   45.253207   52.241835
 C    1.447015   45.922167   53.175914
 C    1.728875   45.564227   54.637198
 C    3.168567   45.917179   55.019178
 C    4.177407   45.248783   54.082792
 C    5.168295   40.860852   46.621399
 C    4.174943   40.587343   47.557005
 C    4.363899   40.975415   48.879521
 C    5.518970   41.640866   49.276844
 N    6.953500   43.944194   50.363934
 C    7.198690   44.880504   51.263576
 O    6.208416   45.357469   52.012989
 C    8.499239   45.364744   51.430039
 N    9.144200   46.286433   52.232966
 N   10.703698   45.430898   50.869385
 C    9.488701   44.848623   50.593055
 N    9.247552   43.919949   49.659623
 N    7.723378   42.559182   48.656445
 C    6.509965   41.923896   48.332111
 C    6.331461   41.513100   47.006788
 H   11.186478   46.905171   52.312463
 H    4.677061   45.125909   50.634619
 H    4.838320   43.810509   51.809334
 H    4.043755   46.686801   52.493976
 H    2.336188   44.159791   52.297936
 H    2.264373   45.537666   51.198808
 H    0.424618   45.638226   52.899244
 H    1.513426   47.013238   53.053739
 H    1.572660   44.484795   54.779894
 H    1.019544   46.072644   55.301706
 H    3.298370   47.007916   54.960038
 H    3.370834   45.635616   56.059543
 H    5.200811   45.531280   54.348510
 H    4.114401   44.155212   54.194812
 H    5.041721   40.559530   45.584446
 H    3.265065   40.073150   47.260756
 H    3.597841   40.761421   49.621199
 H    5.662612   41.928840   50.313122
 H    8.736269   46.857061   52.956186
 H    8.514226   42.378421   48.054941
 H    7.110086   41.722071   46.276406
