45 
1h1q_ligand_aiqm1.xyz
 C    7.990416   43.466995   49.644372
 C   10.416669   46.312981   51.792706
 C    4.892090   44.866425   51.750786
 C    3.916226   45.580163   52.663702
 C    2.482577   45.207893   52.282105
 C    1.468731   45.911674   53.180219
 C    1.731597   45.588502   54.649124
 C    3.160038   45.964426   55.036883
 C    4.172340   45.259264   54.135877
 C    5.217790   40.886591   46.567091
 C    4.174570   40.635031   47.453955
 C    4.316546   41.007491   48.786943
 C    5.478985   41.623064   49.243714
 N    6.939887   43.926293   50.376542
 C    7.188276   44.884215   51.249337
 O    6.206593   45.393526   52.000514
 C    8.483478   45.376628   51.394539
 N    9.109147   46.332259   52.169474
 N   10.691254   45.437542   50.850161
 C    9.484175   44.835415   50.585293
 N    9.255598   43.864755   49.682931
 N    7.743439   42.465559   48.739736
 C    6.522014   41.889818   48.348788
 C    6.380259   41.507000   47.010233
 H   11.140286   46.970105   52.246218
 H    4.641572   45.016065   50.698762
 H    4.896314   43.792646   51.951221
 H    4.045597   46.659604   52.515903
 H    2.362664   44.123074   52.388852
 H    2.296379   45.449782   51.232163
 H    0.455410   45.620225   52.898270
 H    1.542523   46.994016   53.030515
 H    1.588223   44.514839   54.809944
 H    1.012823   46.105563   55.287852
 H    3.284781   47.048232   54.939468
 H    3.348927   45.716132   56.083207
 H    5.193913   45.534199   54.413200
 H    4.085873   44.175239   54.276323
 H    5.132101   40.602914   45.526465
 H    3.269015   40.152779   47.113066
 H    3.515727   40.805439   49.487260
 H    5.580607   41.908647   50.280076
 H    8.682317   46.918259   52.861819
 H    8.526829   42.305286   48.128609
 H    7.192425   41.694448   46.315780
