17 
1h4w_ligand_ani-2x.xyz
 C   50.391270   36.767788   39.344599
 C   50.494942   35.845589   40.387089
 C   50.009804   34.550932   40.233042
 C   49.411958   34.170438   39.034405
 C   49.315257   35.083781   37.987041
 C   49.810311   36.373170   38.137755
 C   50.908995   38.165027   39.484111
 N   50.927418   38.650571   40.788603
 N   51.308999   38.782129   38.440537
 H   50.977148   36.139714   41.316219
 H   50.090650   33.841721   41.053418
 H   49.026483   33.161570   38.913531
 H   48.857042   34.788630   37.046767
 H   49.758689   37.094462   37.327514
 H   51.072931   39.647829   40.871112
 H   50.187544   38.313781   41.390620
 H   51.647960   39.717968   38.670136
