26 
1hn2_ligand_xtb.xyz
 C    0.468144   -0.636646    5.535183
 C    1.192162   -0.239510    4.384533
 C   -0.934182   -0.354944    5.620581
 C    0.563043    0.405413    3.363111
 C   -1.556368    0.347503    4.534399
 C   -0.805530    0.703225    3.439197
 C   -1.079991   -2.528392    9.958464
 C    0.304450   -2.790241    9.880615
 C   -1.716100   -1.877267    8.946256
 C    1.020582   -2.396314    8.792407
 C   -1.005833   -1.448466    7.796947
 C    0.394764   -1.715682    7.717030
 C    1.092172   -1.304840    6.586115
 C   -1.631299   -0.776898    6.748285
 N   -2.912366    0.605153    4.555485
 H    2.247654   -0.462223    4.335778
 H    1.112833    0.706467    2.483145
 H   -1.280220    1.226179    2.620510
 H   -1.627937   -2.851432   10.831795
 H    0.787432   -3.308577   10.696362
 H   -2.776959   -1.675110    9.002055
 H    2.080992   -2.595263    8.726310
 H    2.151274   -1.512895    6.516331
 H   -2.695247   -0.603154    6.832061
 H   -3.233866    1.270480    3.870412
 H   -3.348904    0.699933    5.456935
