26 
1hn2_ligand_aiqm1.xyz
 C    0.476145   -0.629171    5.535562
 C    1.203066   -0.235260    4.367935
 C   -0.928941   -0.360922    5.614895
 C    0.562119    0.388821    3.341623
 C   -1.561107    0.338856    4.521590
 C   -0.827350    0.687689    3.420701
 C   -1.097136   -2.549122    9.958720
 C    0.309668   -2.787167    9.895830
 C   -1.734653   -1.907010    8.939296
 C    1.030497   -2.377729    8.814084
 C   -1.010688   -1.457872    7.789331
 C    0.396643   -1.702184    7.724034
 C    1.105228   -1.286462    6.594230
 C   -1.640341   -0.792795    6.734438
 N   -2.937004    0.599230    4.588323
 H    2.262727   -0.451351    4.318053
 H    1.105501    0.679985    2.451819
 H   -1.307364    1.197572    2.592806
 H   -1.653242   -2.884747   10.824202
 H    0.797784   -3.298373   10.715430
 H   -2.803607   -1.728085    8.985550
 H    2.098161   -2.559315    8.760425
 H    2.169498   -1.487530    6.533073
 H   -2.712971   -0.653194    6.793650
 H   -3.234353    1.279794    3.907586
 H   -3.257578    0.862843    5.507118
