15 
1i80_ligand_xtb.xyz
 C    0.174603   44.246573    2.801266
 C   -0.767292   45.097275    3.320509
 N   -1.291892   44.568333    4.454163
 C   -0.701145   43.367201    4.690444
 C   -0.914302   42.434724    5.756082
 O   -1.680947   42.513177    6.696907
 N   -0.076314   41.325516    5.591618
 C    0.807483   41.169482    4.563771
 N    0.995406   42.004841    3.613220
 C    0.230089   43.133726    3.665964
 H    0.756844   44.391719    1.915142
 H   -1.097349   46.048996    2.951798
 H   -2.001526   44.979353    5.038812
 H   -0.158629   40.610155    6.303186
 H    1.388970   40.257931    4.569118
