15 
1i80_ligand_dft.xyz
 C    0.175532   44.251816    2.795720
 C   -0.770077   45.105086    3.317534
 N   -1.292685   44.564058    4.458842
 C   -0.692350   43.359297    4.685577
 C   -0.919329   42.438784    5.759155
 O   -1.694710   42.533959    6.697498
 N   -0.076304   41.326921    5.590369
 C    0.817572   41.159447    4.559098
 N    1.012270   41.996277    3.598404
 C    0.230936   43.131207    3.667126
 H    0.759373   44.405004    1.900464
 H   -1.112189   46.064449    2.957766
 H   -2.001724   44.965882    5.050987
 H   -0.159341   40.612507    6.301853
 H    1.387028   40.234306    4.591607
