15 
1i80_ligand_ani-2x.xyz
 C    0.172349   44.259349    2.793659
 C   -0.772141   45.107942    3.317430
 N   -1.291204   44.561402    4.458717
 C   -0.686668   43.358769    4.679644
 C   -0.914968   42.437146    5.757172
 O   -1.689985   42.535199    6.689439
 N   -0.078008   41.321594    5.597594
 C    0.814402   41.160056    4.562915
 N    1.017154   41.989942    3.597685
 C    0.233467   43.133112    3.662551
 H    0.756729   44.414303    1.896183
 H   -1.114697   46.069242    2.956396
 H   -2.000965   44.960596    5.053983
 H   -0.165168   40.607247    6.312926
 H    1.383704   40.233102    4.595706
