15 
1i80_ligand_aiqm1.xyz
 C    0.177676   44.247622    2.796294
 C   -0.772540   45.103863    3.321819
 N   -1.292129   44.562041    4.459822
 C   -0.689613   43.356699    4.684339
 C   -0.913027   42.434348    5.754428
 O   -1.692366   42.542932    6.686638
 N   -0.080534   41.329608    5.593756
 C    0.815150   41.163913    4.558346
 N    1.017747   41.991460    3.594873
 C    0.231783   43.131365    3.665615
 H    0.754448   44.410065    1.902736
 H   -1.112428   46.060411    2.961944
 H   -1.998391   44.958030    5.053016
 H   -0.159765   40.615388    6.300573
 H    1.377988   40.241256    4.597801
