17 
1il3_ligand_ani-2x.xyz
 N   -1.089480    0.516330    7.842294
 C   -1.682645    0.901785    6.772505
 C   -0.777575    1.534909    5.715448
 C    0.513404    1.424290    6.441979
 C    1.836637    1.798409    6.070970
 O    2.231774    2.298897    5.034069
 N    2.750381    1.508280    7.117023
 C    2.406220    0.909100    8.299539
 N    3.440923    0.642210    9.163433
 N    1.193221    0.549954    8.610640
 C    0.271855    0.827426    7.664587
 H   -2.756803    0.777663    6.645980
 H   -0.816226    0.978012    4.769306
 H   -1.086624    2.564243    5.487503
 H    3.720348    1.687832    6.882862
 H    3.116705    0.354291   10.077308
 H    4.194884    1.313370    9.196554
