17 
1il3_ligand_dft.xyz
 N   -1.093263    0.521047    7.840718
 C   -1.683015    0.899477    6.762787
 C   -0.788954    1.522113    5.721509
 C    0.511759    1.431011    6.439088
 C    1.834970    1.814028    6.066353
 O    2.245950    2.327491    5.040158
 N    2.748141    1.502417    7.113999
 C    2.409928    0.919366    8.300586
 N    3.430727    0.646838    9.171352
 N    1.188002    0.576732    8.621194
 C    0.276018    0.841715    7.656755
 H   -2.754912    0.767148    6.638851
 H   -0.817171    0.960494    4.778701
 H   -1.098263    2.549018    5.487127
 H    3.717638    1.687644    6.889755
 H    3.106200    0.361938   10.084568
 H    4.233246    1.258523    9.178500
