16 
1il5_ligand_aiqm1.xyz
 C  -15.316710   36.062201   39.562715
 N  -14.843393   36.178984   38.252147
 C  -14.492506   35.812652   40.651772
 N  -14.919568   35.611716   41.893210
 C  -16.242588   35.662911   42.067198
 N  -16.707753   35.532895   43.349816
 N  -17.149655   35.880602   41.111657
 C  -16.665903   36.074578   39.890052
 O  -17.540880   36.319613   38.896133
 O  -13.164396   35.791824   40.429901
 H  -13.904036   36.550166   38.231126
 H  -15.463510   36.739460   37.684742
 H  -16.077245   35.075381   43.985325
 H  -17.674599   35.267930   43.425570
 H  -18.416614   36.322503   39.302496
 H  -12.749944   35.638985   41.288341
