16 
1il5_ligand_ani-2x.xyz
 C  -15.316235   36.129798   39.584644
 N  -14.840977   36.399221   38.321295
 C  -14.485490   35.847863   40.669865
 N  -14.911567   35.584406   41.896892
 C  -16.245281   35.602368   42.054189
 N  -16.709664   35.339185   43.288818
 N  -17.163713   35.856314   41.107722
 C  -16.674797   36.112201   39.902721
 O  -17.552061   36.375348   38.908179
 O  -13.151511   35.844145   40.449993
 H  -13.850651   36.398417   38.157048
 H  -15.490944   36.596517   37.582159
 H  -16.058938   35.143376   44.030450
 H  -17.701736   35.341699   43.454895
 H  -18.433852   36.319320   39.309495
 H  -12.741883   35.632220   41.303836
