18 
1il9_ligand_aiqm1.xyz
 N    3.652335    1.729573    7.514010
 C    3.545714    1.194239    8.761296
 N    2.425835    0.796541    9.299588
 C    1.378341    1.010981    8.476220
 C    1.345269    1.543007    7.213908
 C    2.572758    1.975148    6.608458
 O    2.804890    2.473309    5.529913
 N    0.028823    1.565692    6.755234
 C   -0.643959    1.059651    7.730036
 O    0.112608    0.690990    8.826958
 C   -2.103454    0.823280    7.828786
 N    4.697349    1.124113    9.498403
 H    4.547197    2.065088    7.188148
 H   -2.574386    1.154684    6.908329
 H   -2.309363   -0.235712    7.985015
 H   -2.522543    1.371438    8.672542
 H    4.600087    0.574118   10.336137
 H    5.557400    0.979560    8.999023
