18 
1il9_ligand_xtb.xyz
 N    3.652792    1.633360    7.470840
 C    3.552091    1.215490    8.763555
 N    2.419352    0.904702    9.335615
 C    1.354828    1.035795    8.526646
 C    1.350531    1.452513    7.199222
 C    2.581885    1.798164    6.552749
 O    2.821429    2.177721    5.433201
 N    0.049696    1.440708    6.758190
 C   -0.646583    1.043457    7.765635
 O    0.090936    0.775990    8.888623
 C   -2.113636    0.855497    7.822947
 N    4.684784    1.119036    9.488026
 H    4.564452    1.858658    7.089899
 H   -2.616947    1.792822    7.595311
 H   -2.422889    0.120596    7.082583
 H   -2.394645    0.518016    8.816251
 H    4.603720    0.810243   10.439063
 H    5.583104    1.342931    9.103646
