18 
1il9_ligand_ani-2x.xyz
 N    3.651962    1.738293    7.517755
 C    3.547523    1.199792    8.775788
 N    2.418018    0.825078    9.320481
 C    1.380262    1.022502    8.494528
 C    1.341690    1.547450    7.223550
 C    2.577798    1.980728    6.620718
 O    2.788946    2.483570    5.539107
 N    0.033527    1.554538    6.767251
 C   -0.641920    1.052543    7.740251
 O    0.106545    0.700020    8.837758
 C   -2.105238    0.814348    7.816196
 N    4.709133    1.111956    9.486261
 H    4.544283    2.076386    7.173544
 H   -2.570150    1.137279    6.883830
 H   -2.316804   -0.247816    7.973939
 H   -2.545356    1.372020    8.648776
 H    4.627391    0.569390   10.334948
 H    5.567288    0.957623    8.977322
