17 
1j14_ligand_ani-2x.xyz
 C    7.777449   50.418154   55.534971
 C    7.671101   49.283094   54.728700
 C    7.761018   48.014850   55.288815
 C    7.976125   47.868108   56.657277
 C    8.104644   48.995972   57.463681
 C    8.003105   50.265405   56.903823
 C    7.668721   51.772725   54.908138
 N    7.214794   52.773903   55.762472
 N    8.013078   51.917512   53.687412
 H    7.519861   49.417927   53.661757
 H    7.668424   47.137396   54.654238
 H    8.048812   46.875182   57.092962
 H    8.275259   48.888040   58.532222
 H    8.120077   51.147389   57.528920
 H    6.940559   53.633151   55.305314
 H    6.552026   52.479040   56.467475
 H    7.903848   52.886653   53.383723
