17 
1j15_ligand_dft.xyz
 C   -0.213903   -0.035507   -0.021860
 C    0.520607   -1.211236    0.152592
 C    1.908683   -1.174023    0.176483
 C    2.580683    0.036954    0.019535
 C    1.856215    1.209492   -0.168457
 C    0.464756    1.174294   -0.189025
 C   -1.705449   -0.111117   -0.035800
 N   -2.353702    1.078487    0.275417
 N   -2.266936   -1.212773   -0.363875
 H   -0.019095   -2.145426    0.264529
 H    2.469877   -2.092909    0.318056
 H    3.666253    0.064532    0.037900
 H    2.373221    2.154176   -0.308468
 H   -0.091516    2.089205   -0.371473
 H   -3.348208    1.002166    0.439197
 H   -1.890625    1.675769    0.946208
 H   -3.284987   -1.140651   -0.307547
