17 
1j15_ligand_xtb.xyz
 C    7.640189   50.342389   55.669329
 C    7.611458   49.189054   54.890400
 C    7.713252   47.944048   55.480760
 C    7.851434   47.835721   56.855299
 C    7.897647   48.979048   57.634711
 C    7.791456   50.227489   57.047836
 C    7.526693   51.657139   55.003622
 N    7.009549   52.678612   55.763203
 N    7.943972   51.766621   53.811759
 H    7.512567   49.296859   53.822104
 H    7.686020   47.053924   54.869486
 H    7.930211   46.862884   57.318192
 H    8.019969   48.898821   58.705295
 H    7.855988   51.112314   57.665033
 H    6.790624   53.544590   55.297154
 H    6.458058   52.462046   56.575335
 H    7.841811   52.696538   53.411682
