17 
1j16_ligand_aiqm1.xyz
 C    7.633164   49.730629   54.981320
 C    7.602087   48.553450   54.229314
 C    7.686052   47.319952   54.860617
 C    7.810731   47.250101   56.247036
 C    7.859397   48.421235   56.998857
 C    7.767716   49.658720   56.369036
 C    7.532672   51.045173   54.284470
 N    7.126252   52.102257   55.089858
 N    7.849378   51.127377   53.048242
 H    7.522945   48.628484   53.154370
 H    7.662387   46.410704   54.274160
 H    7.879808   46.288374   56.738484
 H    7.974940   48.371813   58.073845
 H    7.836825   50.569045   56.950612
 H    6.864048   52.932034   54.586128
 H    6.479673   51.870490   55.825653
 H    7.718526   52.074663   52.696998
