17 
1j16_ligand_xtb.xyz
 C    7.624337   49.737412   54.993126
 C    7.576747   48.566688   54.241533
 C    7.670055   47.334670   54.859903
 C    7.818517   47.256763   56.235420
 C    7.883403   48.417309   56.987609
 C    7.785727   49.652870   56.372703
 C    7.519552   51.037498   54.297932
 N    7.020078   52.082155   55.037927
 N    7.927696   51.114785   53.100438
 H    7.470126   48.650746   53.171854
 H    7.628144   46.430965   54.269752
 H    7.890752   46.294138   56.720210
 H    8.013688   48.360586   58.058757
 H    7.864774   50.551049   56.968547
 H    6.807313   52.939832   54.554026
 H    6.473346   51.890759   55.859544
 H    7.832344   52.036277   52.679720
