17 
1j16_ligand_dft.xyz
 C   -0.213916   -0.035458   -0.021768
 C    0.520623   -1.211194    0.152601
 C    1.908703   -1.174009    0.176470
 C    2.580723    0.036945    0.019518
 C    1.856237    1.209492   -0.168459
 C    0.464777    1.174313   -0.188967
 C   -1.705448   -0.111144   -0.035796
 N   -2.353830    1.078328    0.275516
 N   -2.266864   -1.212826   -0.363890
 H   -0.019100   -2.145379    0.264525
 H    2.469844   -2.092934    0.318013
 H    3.666296    0.064520    0.037767
 H    2.373234    2.154184   -0.308444
 H   -0.091379    2.089284   -0.371502
 H   -3.348510    1.002555    0.438418
 H   -1.890806    1.676390    0.945610
 H   -3.284913   -1.140801   -0.307369
