43 
1jao_ligand_ani-2x.xyz
 C   27.983162   59.315246   50.894350
 O   27.807887   60.519292   50.758406
 C   27.111516   58.473604   51.824015
 C   25.799092   58.100718   51.088680
 C   26.063120   57.468218   49.744567
 C   26.634653   56.195069   49.660813
 C   27.017787   55.666177   48.432861
 C   26.823519   56.402704   47.266332
 C   26.239281   57.664341   47.329968
 C   25.862023   58.188346   48.563135
 C   26.861977   59.276044   53.102378
 S   25.903756   58.401362   54.374610
 N   28.925160   58.631938   50.189931
 C   29.540227   59.204756   49.014983
 C   29.969419   58.041300   48.119302
 O   30.260146   56.943842   48.587444
 C   30.744975   60.081191   49.375149
 N   30.041929   58.294821   46.789835
 C   30.489933   57.290751   45.838288
 C   32.019877   57.170379   45.750709
 O   32.635798   57.491432   44.749533
 N   32.601661   56.672776   46.871321
 H   27.653492   57.549555   52.069280
 H   25.216029   57.424394   51.725814
 H   25.208730   59.015203   50.956738
 H   26.805545   55.618728   50.569903
 H   27.471686   54.678449   48.388225
 H   27.131504   55.993029   46.305829
 H   26.082308   58.244309   46.422042
 H   25.417463   59.180944   48.616359
 H   27.805896   59.621174   53.532481
 H   26.288547   60.172041   52.850874
 H   26.817270   57.453418   54.636704
 H   29.001034   57.624416   50.262293
 H   28.796141   59.821241   48.494060
 H   31.196579   60.512516   48.475036
 H   30.412529   60.893770   50.025942
 H   31.499405   59.491193   49.904507
 H   29.869241   59.231676   46.461542
 H   30.070714   56.329121   46.153066
 H   30.117046   57.541887   44.845307
 H   32.053238   56.471687   47.699931
 H   33.603703   56.555942   46.873459
