29 
1jvp_ligand_ani-2x.xyz
 N    1.907235   32.258984    7.613538
 N    0.821668   32.891022    8.094283
 C    0.209442   31.929144    8.765675
 C    0.887663   30.699865    8.737660
 C    2.006801   30.941299    7.972102
 C    3.110631   30.060971    7.558925
 C    3.335533   28.863274    8.237697
 C    4.379552   28.041302    7.834528
 N    5.199379   28.318543    6.819690
 C    4.974128   29.463828    6.170506
 C    3.961953   30.357884    6.490180
 C    0.119041   29.668302    9.540047
 C   -1.080254   30.487832   10.010797
 C   -1.005726   31.810578    9.546702
 C   -1.981883   32.754652    9.845934
 C   -3.054619   32.352328   10.631646
 C   -3.139626   31.038736   11.101525
 C   -2.154268   30.099272   10.795427
 H    2.594152   32.811040    7.120475
 H    2.713773   28.573003    9.079144
 H    4.565697   27.106942    8.360142
 H    5.645398   29.683007    5.341209
 H    3.837309   31.259483    5.896720
 H   -0.196503   28.805834    8.936598
 H    0.686038   29.275050   10.396828
 H   -1.896056   33.771026    9.470991
 H   -3.835452   33.064802   10.884433
 H   -3.986407   30.743398   11.715630
 H   -2.234601   29.080598   11.169971
