29 
1jvp_ligand_xtb.xyz
 N    1.831029   32.201680    7.444403
 N    0.745039   32.825196    7.897495
 C    0.151248   31.936369    8.674874
 C    0.872293   30.718579    8.720243
 C    1.970887   30.917314    7.904578
 C    3.073075   30.052934    7.544594
 C    3.144701   28.753676    8.056324
 C    4.209198   27.948529    7.695733
 N    5.179988   28.335264    6.884271
 C    5.117504   29.562856    6.397389
 C    4.101472   30.456015    6.687922
 C    0.180961   29.736336    9.601881
 C   -1.021368   30.535423   10.056484
 C   -1.025913   31.830047    9.502346
 C   -2.041252   32.724728    9.791636
 C   -3.056326   32.316023   10.641606
 C   -3.055266   31.042234   11.189073
 C   -2.037482   30.142152   10.900529
 H    2.450870   32.692810    6.821046
 H    2.381007   28.386611    8.721719
 H    4.293806   26.938179    8.074448
 H    5.928169   29.844289    5.737671
 H    4.119424   31.442830    6.251313
 H   -0.124415   28.833984    9.064961
 H    0.796678   29.430510   10.452229
 H   -2.033757   33.713962    9.360957
 H   -3.859363   32.997447   10.881659
 H   -3.856693   30.744597   11.849371
 H   -2.045513   29.151425   11.332248
