15 
1jys_ligand_xtb.xyz
 N   14.687443   -5.177197   39.889309
 C   15.978254   -5.018708   40.313504
 N   16.400177   -3.795224   40.257156
 C   15.337882   -3.076157   39.766652
 C   15.131272   -1.717334   39.468350
 N   16.077298   -0.779273   39.642729
 N   13.939843   -1.348512   38.990990
 C   13.001694   -2.265699   38.816173
 N   13.064294   -3.561936   39.053818
 C   14.250978   -3.936426   39.530406
 H   14.153728   -6.028524   39.844378
 H   16.571755   -5.842885   40.657897
 H   15.869233    0.174710   39.410651
 H   16.975822   -1.046285   40.000082
 H   12.060326   -1.901550   38.426906
