15 
1k03_ligand_dft.xyz
 C   -2.466878    0.391351   -0.000402
 O   -3.268529   -0.517757    0.000514
 C   -1.002848    0.219127   -0.000256
 C   -0.437568   -1.063261   -0.000241
 C    0.934266   -1.226675   -0.000142
 C    1.764429   -0.098674   -0.000023
 C    1.214158    1.185244    0.000006
 C   -0.166265    1.334878   -0.000072
 O    3.100431   -0.317989    0.000289
 H   -2.811382    1.448551    0.000700
 H   -1.100897   -1.922524   -0.000355
 H    1.390749   -2.210568   -0.000166
 H    1.862166    2.058565    0.000068
 H   -0.598333    2.333127   -0.000097
 H    3.566729    0.526888    0.000196
