43 
1ke7_ligand_ani-2x.xyz
 O  -11.183258   51.633176   11.846354
 C  -10.323688   51.239190   12.627992
 N   -9.878382   51.952308   13.729752
 C   -8.909551   51.249417   14.424747
 C   -8.226230   51.624351   15.575621
 C   -7.293587   50.745678   16.092376
 C   -7.039686   49.501730   15.471924
 C   -6.049210   48.594432   16.040608
 O   -5.391057   48.991110   17.176129
 C   -4.556607   47.972227   17.462223
 N   -4.611779   46.981569   16.641340
 C   -5.569046   47.365666   15.718327
 C   -7.731383   49.140611   14.320884
 C   -8.677307   50.016592   13.784276
 C   -9.556585   49.970331   12.632565
 C   -9.726450   49.013305   11.689191
 N  -10.604881   49.137068   10.662480
 C  -10.905730   48.183349    9.679080
 C  -10.059699   47.111808    9.386194
 C  -10.429277   46.210642    8.399743
 C   -9.608865   45.012606    8.012003
 S  -10.272664   44.537003    6.400388
 O  -10.387651   43.088394    6.296021
 O   -9.574974   45.305604    5.373862
 C  -11.894124   45.291473    6.667355
 C  -11.629727   46.357151    7.693072
 C  -12.464635   47.428572    7.980822
 C  -12.100711   48.338170    8.965699
 H  -10.241991   52.862384   13.965420
 H   -8.418387   52.580799   16.056929
 H   -6.744930   51.011614   16.989687
 H   -3.931659   48.082119   18.338158
 H   -5.837473   46.724384   14.891716
 H   -7.519884   48.178183   13.860485
 H   -9.158559   48.083649   11.734939
 H  -11.148954   49.996263   10.683174
 H   -9.108153   46.990149    9.895644
 H   -9.731597   44.164453    8.693152
 H   -8.542201   45.222914    7.900042
 H  -12.576446   44.510617    7.018466
 H  -12.259246   45.670190    5.709245
 H  -13.397948   47.559318    7.438923
 H  -12.751825   49.179430    9.194993
