33 
1kfy_ligand_ani-2x.xyz
 N   36.520439  -22.551457  -50.338753
 O   35.651859  -21.856590  -49.798786
 O   37.653333  -22.633050  -49.916946
 N   37.865959  -25.600504  -53.908416
 O   37.554963  -26.214602  -54.914048
 O   38.973420  -25.616192  -53.399762
 C   37.151842  -24.070216  -52.128685
 C   36.830184  -24.783361  -53.264321
 C   35.558355  -24.746106  -53.824745
 C   34.558874  -23.978207  -53.245466
 C   34.850577  -23.256700  -52.066856
 C   36.157616  -23.299813  -51.533747
 O   33.846754  -22.562128  -51.514224
 C   33.547420  -23.068579  -56.075807
 C   33.059868  -24.116547  -55.291136
 C   32.567287  -25.247963  -55.941992
 C   32.561064  -25.338206  -57.330930
 C   33.050381  -24.278095  -58.082802
 C   33.545064  -23.135676  -57.464155
Cl   33.043693  -24.379968  -59.820550
 C   33.124525  -23.967052  -53.777914
 C   32.274583  -24.997176  -53.029241
 H   38.143456  -24.099251  -51.703315
 H   35.374102  -25.310716  -54.730976
 H   34.201202  -22.087111  -50.735986
 H   33.939524  -22.179059  -55.585390
 H   32.170490  -26.078395  -55.363992
 H   32.175178  -26.225231  -57.823913
 H   33.923626  -22.313247  -58.063497
 H   32.724487  -22.973904  -53.542919
 H   32.250210  -24.760962  -51.962726
 H   31.246004  -24.999278  -53.404695
 H   32.693661  -26.003661  -53.138309
