33 
1kfy_ligand_xtb.xyz
 N   36.610232  -22.379078  -50.588234
 O   35.787417  -21.607101  -50.102312
 O   37.753013  -22.459418  -50.214860
 N   37.694401  -25.843801  -53.812198
 O   37.300903  -26.580940  -54.688586
 O   38.823371  -25.813452  -53.379066
 C   37.115373  -24.097204  -52.206710
 C   36.735490  -24.929928  -53.236900
 C   35.430544  -24.904180  -53.732707
 C   34.490588  -24.050492  -53.203949
 C   34.848052  -23.187572  -52.140334
 C   36.177110  -23.226627  -51.657877
 O   33.918228  -22.383449  -51.651112
 C   33.298863  -22.923405  -55.933874
 C   33.068035  -24.099325  -55.227244
 C   32.880144  -25.275647  -55.940667
 C   32.914332  -25.280748  -57.324383
 C   33.143385  -24.098273  -58.007155
 C   33.337376  -22.913121  -57.314825
Cl   33.185118  -24.098001  -59.734358
 C   33.068487  -24.042045  -53.716035
 C   32.288321  -25.176697  -53.044120
 H   38.125599  -24.114269  -51.823128
 H   35.172103  -25.564170  -54.547553
 H   34.304853  -21.834864  -50.923034
 H   33.447338  -21.999218  -55.394321
 H   32.697539  -26.205612  -55.426289
 H   32.765454  -26.199027  -57.869988
 H   33.513799  -21.995307  -57.852888
 H   32.611544  -23.095258  -53.413414
 H   32.204604  -24.980413  -51.978003
 H   31.288088  -25.238564  -53.464040
 H   32.790294  -26.131796  -53.174838
