44 
1kmv_ligand_xtb.xyz
 C   13.684913   24.236797   32.439947
 C   15.018725   24.193398   31.919870
 C   14.539275   22.259254   30.810945
 C   12.802213   23.268362   31.859015
 C   13.173853   25.097453   33.429467
 C   11.803553   25.077497   33.665557
 C   11.014465   24.177479   32.924698
 C   14.053294   25.937862   34.308311
 C   11.175069   25.949355   34.654015
 C    9.766334   24.202516   35.755723
 C   10.618331   23.086396   35.786399
 C   10.065735   21.821386   35.947511
 C    8.704111   21.656591   36.102777
 C    7.854032   22.758870   36.119977
 C    8.398648   24.023109   35.952807
 C   10.255976   25.565084   35.542357
 C   12.826638   22.235755   35.510176
 C    5.625042   23.571273   36.313973
 N   15.431486   23.208012   31.152426
 N   13.249677   22.290114   31.060808
 N   11.481716   23.289194   32.095864
 N   15.941585   25.163007   32.175307
 N   15.029298   21.194814   30.133282
 O   11.961547   23.326808   35.700113
 O    6.525868   22.493004   36.303812
 H    9.939495   24.177488   33.057090
 H   15.045232   25.503716   34.402659
 H   14.143222   26.954308   33.919108
 H   13.607049   25.998977   35.298945
 H   11.471254   26.991196   34.623590
 H   10.695342   20.946480   35.954152
 H    8.279431   20.673045   36.222653
 H    7.771203   24.901352   35.942290
 H    9.790280   26.318931   36.166428
 H   12.846881   21.575777   36.384067
 H   12.554265   21.659704   34.619957
 H   13.816687   22.667432   35.367023
 H    5.839224   24.268659   37.131036
 H    5.633730   24.113545   35.362473
 H    4.640474   23.131707   36.467008
 H   15.622844   26.092269   32.385237
 H   16.781745   25.085185   31.623459
 H   15.954077   21.270397   29.749194
 H   14.358879   20.590740   29.691995
