24 
1kmy_ligand_dft.xyz
 C   -0.789884    1.705573    0.346310
 C   -0.301734    0.414769    0.093559
 C   -1.229069   -0.609081   -0.118934
 C   -2.602786   -0.331619   -0.079369
 C   -3.068186    0.948720    0.169345
 C   -2.149274    1.975192    0.384101
 C    1.162847    0.168118    0.040698
 C    1.994786    1.064582   -0.638810
 C    3.372723    0.877497   -0.668730
 C    3.942900   -0.212694   -0.018780
 C    3.124329   -1.113816    0.657220
 C    1.747068   -0.927420    0.686206
 O   -3.407780   -1.418464   -0.310539
 O   -0.818767   -1.876229   -0.382181
 H   -0.075837    2.501336    0.534939
 H   -4.137881    1.143289    0.199769
 H   -2.501954    2.980633    0.588881
 H    1.552973    1.907312   -1.163585
 H    4.000405    1.582083   -1.206707
 H    5.018443   -0.361864   -0.041651
 H    3.560757   -1.967465    1.167769
 H    1.115924   -1.634644    1.212852
 H   -4.330841   -1.143136   -0.329167
 H   -1.611953   -2.408918   -0.538230
