15 
1kqb_ligand_ani-2x.xyz
 C    3.797084   -3.337009   29.765408
 O    4.167202   -2.647579   30.868211
 O    2.868202   -2.957652   29.101604
 C    4.595316   -4.565479   29.433721
 C    5.291536   -5.298233   30.397273
 C    5.992981   -6.441723   30.029344
 C    6.003724   -6.855990   28.699219
 C    5.296147   -6.136256   27.738663
 C    4.584865   -5.001172   28.108761
 H    5.011767   -2.975798   31.205502
 H    5.263633   -5.008109   31.447561
 H    6.539356   -7.005024   30.782074
 H    6.558199   -7.745678   28.411880
 H    5.294381   -6.463437   26.702394
 H    4.008108   -4.433460   27.383686
