47 
1kyv_ligand_aiqm1.xyz
 N    0.164050    3.330026    0.418024
 C   -0.163454    4.583725    0.896950
 O    0.648845    5.424541    1.197099
 N   -1.536439    4.891930    1.034260
 C   -2.621288    4.074286    0.818274
 O   -3.761050    4.433795    0.999800
 C   -2.228106    2.709100    0.345644
 N   -3.140874    1.820108    0.137845
 C   -2.739117    0.567798   -0.260538
 C   -3.709469   -0.435849   -0.419265
 C   -3.366963   -1.722550   -0.787078
 C   -4.420379   -2.780573   -0.952761
 C   -1.997992   -2.034587   -0.996937
 C   -1.593943   -3.431740   -1.372485
 C   -1.028371   -1.052982   -0.849841
 C   -1.385248    0.260036   -0.498001
 N   -0.443280    1.268350   -0.362475
 C   -0.792289    2.479489    0.144657
 C    0.959730    1.020347   -0.731314
 C    1.772387    0.453858    0.426907
 O    2.120707    1.437436    1.375421
 C    3.042235   -0.188555   -0.105890
 O    2.625630   -1.314156   -0.872753
 C    4.016698   -0.610873    0.982119
 O    5.014777   -1.368672    0.305839
 C    3.371462   -1.449033    2.071771
 O    4.450220   -1.970046    2.846726
 H   -1.735069    5.821037    1.372341
 H   -4.741016   -0.159913   -0.232977
 H   -4.420901   -3.181666   -1.967797
 H   -4.246528   -3.621292   -0.278986
 H   -5.410763   -2.377838   -0.745735
 H   -0.517166   -3.501512   -1.514402
 H   -2.083218   -3.744380   -2.295032
 H   -1.886949   -4.144480   -0.600770
 H    0.008738   -1.318239   -0.987134
 H    0.974778    0.347636   -1.582180
 H    1.396006    1.968053   -1.034496
 H    1.170662   -0.325239    0.918031
 H    1.663443    2.265541    1.167724
 H    3.569260    0.527737   -0.749933
 H    3.422389   -1.825939   -1.036712
 H    4.458779    0.275717    1.443062
 H    5.527378   -1.811602    0.986866
 H    2.718919   -0.823668    2.679849
 H    2.782708   -2.257510    1.626875
 H    4.090069   -2.507153    3.550911
