47 
1kyv_ligand_ani-2x.xyz
 N    0.172210    3.175677    0.557186
 C   -0.094016    4.382181    1.136923
 O    0.752581    5.149772    1.546983
 N   -1.454208    4.730583    1.237641
 C   -2.577220    3.976964    0.924835
 O   -3.695001    4.413819    1.084615
 C   -2.218983    2.628344    0.401841
 N   -3.158589    1.760604    0.138784
 C   -2.780409    0.528837   -0.300777
 C   -3.776202   -0.444265   -0.535650
 C   -3.460417   -1.723721   -0.919839
 C   -4.552964   -2.736607   -1.165065
 C   -2.093100   -2.085201   -1.070046
 C   -1.716646   -3.488061   -1.460998
 C   -1.103296   -1.138167   -0.863433
 C   -1.428922    0.183224   -0.519159
 N   -0.465153    1.177963   -0.369012
 C   -0.818807    2.361830    0.217373
 C    0.925319    0.992809   -0.794518
 C    1.874924    0.581498    0.355528
 O    2.458309    1.704559    0.978033
 C    3.011152   -0.304137   -0.142510
 O    2.462805   -1.555044   -0.520369
 C    4.105541   -0.523425    0.905301
 O    4.981952   -1.488788    0.342948
 C    3.556301   -1.060845    2.223403
 O    4.678629   -1.544018    2.955170
 H   -1.621453    5.643006    1.638015
 H   -4.805667   -0.129461   -0.381324
 H   -4.533326   -3.106169   -2.196065
 H   -4.448107   -3.605819   -0.507039
 H   -5.537824   -2.297359   -0.985700
 H   -0.630892   -3.582453   -1.554625
 H   -2.161831   -3.773863   -2.420835
 H   -2.055307   -4.220424   -0.718948
 H   -0.061275   -1.445085   -0.935334
 H    0.925779    0.249551   -1.592261
 H    1.283083    1.936180   -1.216742
 H    1.268588    0.002113    1.073788
 H    1.765037    2.402126    1.014180
 H    3.481524    0.183270   -1.012697
 H    3.231131   -2.137789   -0.626554
 H    4.632418    0.423337    1.089724
 H    5.434649   -1.890371    1.102177
 H    3.032833   -0.269028    2.777165
 H    2.850490   -1.873456    1.997301
 H    4.364361   -2.164193    3.622086
