24 
1l5q_ligand_xtb.xyz
 N   38.633620  -58.451187  101.925562
 C   37.475605  -58.167309  102.640884
 C   39.900539  -58.154603  102.575636
 C   38.739038  -58.993255  100.641865
 N   36.276923  -58.449696  102.020745
 O   37.514333  -57.694497  103.756677
 C   35.026338  -58.183778  102.697579
 C   36.272799  -58.979900  100.768836
 C   37.447116  -59.251325  100.082677
 N   35.197634  -59.313861  100.021535
 O   39.820953  -59.193806  100.125133
 N   37.049853  -59.770128   98.872270
 C   35.705749  -59.780172   98.900575
 C   37.925153  -60.201301   97.820945
 H   40.486216  -59.069510  102.663433
 H   40.460087  -57.440974  101.971154
 H   39.691640  -57.740423  103.557996
 H   34.435917  -57.478948  102.112779
 H   34.463600  -59.110674  102.805200
 H   35.258315  -57.765304  103.674582
 H   35.107431  -60.135177   98.085105
 H   38.556076  -59.371910   97.498019
 H   38.577993  -60.997115   98.182575
 H   37.332374  -60.562449   96.982736
