16 
1l5s_ligand_dft.xyz
 N    1.989971    0.648561   -0.000156
 C    2.139796   -0.728509   -0.000249
 C    0.811287    1.429807   -0.000149
 N    0.932968   -1.428878   -0.000058
 O    3.211754   -1.292154    0.000430
 C   -0.260341   -0.762697   -0.000475
 C   -0.351817    0.592321   -0.000897
 N   -1.524672   -1.280039    0.000344
 O    0.852603    2.644238    0.000571
 N   -1.710509    0.909511   -0.000229
 C   -2.478664   -0.231488    0.000162
 O   -3.681853   -0.360220    0.000367
 H    2.858630    1.168101    0.000469
 H    1.004708   -2.435004   -0.000177
 H   -1.802964   -2.248045   -0.000051
 H   -2.096278    1.839347   -0.000847
