16 
1l5s_ligand_aiqm1.xyz
 N   38.192946  -59.793882   98.407143
 C   36.834689  -59.903160   98.179908
 C   38.877982  -59.240075   99.510425
 N   36.039385  -59.388574   99.194491
 O   36.366169  -60.404006   97.184671
 C   36.609594  -58.831859  100.302572
 C   37.950526  -58.745217  100.483765
 N   35.987951  -58.282018  101.389485
 O   40.087700  -59.219790   99.560875
 N   38.153047  -58.123442  101.719399
 C   36.953521  -57.821121  102.310169
 O   36.731949  -57.284873  103.371985
 H   38.772656  -60.168362   97.670451
 H   35.047252  -59.458329   99.048854
 H   35.002429  -58.193547  101.556079
 H   39.040005  -57.914746  102.138530
