17 
1l6m_ligand_dft.xyz
 O   -2.431978   -1.286463    0.000924
 C   -2.079409    0.004856    0.000312
 O   -2.920508    0.869465   -0.000515
 C   -0.608973    0.337983    0.000411
 C   -0.264906    1.696159   -0.000007
 C    1.059035    2.098232   -0.000034
 C    0.416730   -0.606582   -0.000138
 O    0.142650   -1.942497   -0.001424
 C    1.756746   -0.198892   -0.000221
 C    2.080952    1.145960   -0.000062
 O    2.658616   -1.229276    0.000627
 H   -1.648717   -1.862700    0.000382
 H   -1.075136    2.416120   -0.000231
 H    1.309817    3.153451   -0.000113
 H    0.979676   -2.430515    0.000577
 H    3.124226    1.452766    0.000128
 H    3.558852   -0.885250    0.000796
