24 
1l7x_ligand_aiqm1.xyz
 N   38.376752  -58.129607  101.351288
 C   37.250002  -57.878293  102.146587
 C   39.686083  -57.797197  101.916155
 C   38.403894  -58.668207  100.062761
 N   36.023930  -58.195777  101.601467
 O   37.356419  -57.402719  103.260683
 C   34.806299  -57.965188  102.362031
 C   35.958889  -58.728315  100.343451
 C   37.079280  -58.965192   99.584326
 N   34.822637  -59.082957   99.695252
 O   39.453639  -58.840616   99.469295
 N   36.606504  -59.496183   98.400663
 C   35.267809  -59.540884   98.526607
 C   37.397069  -59.917935   97.258245
 H   40.301747  -58.694200  101.961020
 H   40.183521  -57.068361  101.278184
 H   39.523844  -57.392347  102.908283
 H   34.159084  -57.278364  101.817891
 H   34.277696  -58.907408  102.501731
 H   35.097114  -57.542637  103.318239
 H   34.636523  -59.917267   97.738986
 H   37.969016  -59.079544   96.871842
 H   38.086660  -60.703473   97.552755
 H   36.720491  -60.288530   96.491257
