80 
1lee_ligand_xtb.xyz
 C   -3.533670    2.246768   -2.072941
 C   -3.493271    2.430711   -0.690098
 C   -4.131889    3.510678   -0.080725
 C   -4.833365    4.401482   -0.881803
 C   -4.896584    4.224246   -2.251319
 C   -4.245158    3.157377   -2.841685
 C   -4.063999    3.700887    1.404451
 C   -2.823722    1.091065   -2.714011
 C    4.275832   -1.792160    0.141632
 C    4.531343   -3.119856    0.475224
 C    5.833499   -3.518287    0.723403
 C    6.877290   -2.618167    0.637339
 C    6.633859   -1.281561    0.313860
 N    7.672891   -0.390936    0.166208
 C    5.319828   -0.882167    0.076125
 O   -2.765063    1.535962    0.091587
 C   -3.512736    0.420080    0.524756
 C   -2.593288   -0.653188    1.100007
 O   -3.057606   -1.707281    1.505882
 N   -1.298937   -0.328943    1.058376
 C   -0.074017   -2.505061    1.306246
 O   -0.939890   -3.348861    2.007585
 C   -0.256270   -2.692014   -0.212700
 C    0.702689   -1.857944   -1.068124
 C    0.451984   -2.100912   -2.560319
 C    1.407438   -1.335563   -3.484913
 C    1.116032   -1.709567   -4.937363
 C    1.293490    0.175431   -3.297460
 N    2.076474   -2.160600   -0.731332
 C    2.899294   -1.285784   -0.116601
 O    2.546378   -0.157308    0.190578
 C   -0.198800   -1.017228    1.722627
 C   -0.328526   -0.879171    3.252002
 C   -0.639729    0.544395    3.613060
 C   -1.920161    0.908167    4.009116
 C   -2.223657    2.229847    4.286545
 C   -1.249347    3.205628    4.165001
 C    0.029710    2.852381    3.768219
 C    0.332166    1.531062    3.493143
 H   -5.332529    5.241555   -0.421375
 H   -5.447739    4.924216   -2.861393
 H   -4.283444    3.025245   -3.913187
 H   -4.046694    4.759876    1.651097
 H   -3.174621    3.225523    1.812076
 H   -4.940256    3.259625    1.881522
 H   -2.004576    0.751248   -2.084188
 H   -2.432167    1.381431   -3.686535
 H   -3.511678    0.257596   -2.864769
 H    3.724872   -3.830402    0.580582
 H    6.037280   -4.544402    0.992323
 H    7.890749   -2.940448    0.828979
 H    8.544109   -0.632295    0.609100
 H    7.434217    0.586482    0.201423
 H    5.098603    0.147114   -0.165183
 H   -4.230346    0.702827    1.308124
 H   -4.083729   -0.024108   -0.301696
 H   -1.104488    0.611172    0.741882
 H    0.935831   -2.828087    1.590587
 H   -1.845093   -2.990018    1.895900
 H   -1.284583   -2.440238   -0.475890
 H   -0.112863   -3.753707   -0.429076
 H    0.564065   -0.798038   -0.843780
 H   -0.575458   -1.810759   -2.788266
 H    0.546401   -3.171304   -2.763278
 H    2.435111   -1.634685   -3.249762
 H    1.811746   -1.209740   -5.607066
 H    0.105372   -1.411768   -5.208955
 H    1.208960   -2.782994   -5.087675
 H    1.627296    0.474607   -2.307805
 H    0.264288    0.500281   -3.434425
 H    1.913823    0.689145   -4.028516
 H    2.418236   -3.076799   -0.973607
 H    0.708476   -0.500772    1.400230
 H   -1.120862   -1.540066    3.605195
 H    0.612550   -1.197917    3.702934
 H   -2.684445    0.149037    4.100400
 H   -3.222954    2.499177    4.597767
 H   -1.486190    4.237884    4.378078
 H    0.793207    3.610389    3.670707
 H    1.329109    1.260010    3.176638
