80 
1lf2_ligand_xtb.xyz
 C   -4.156059    0.940054   -1.610706
 C   -4.145029   -0.268867   -0.910761
 C   -5.192395   -1.182392   -1.021469
 C   -6.274254   -0.851687   -1.827462
 C   -6.310023    0.349027   -2.509847
 C   -5.251960    1.234167   -2.407986
 C   -5.155029   -2.496729   -0.301009
 C   -2.994034    1.880350   -1.505177
 C    4.537783   -0.159393   -0.775840
 C    4.973815    0.599457   -1.861496
 C    6.303768    0.913730   -2.020519
 C    7.246835    0.493751   -1.078178
 C    6.806969   -0.243167    0.024925
 N    8.564106    0.859505   -1.193742
 C    5.475144   -0.565400    0.171986
 O   -3.029061   -0.559781   -0.129340
 C   -3.210581   -0.372965    1.259693
 C   -1.861776   -0.158835    1.945780
 O   -1.746856   -0.320840    3.150624
 N   -0.888801    0.197801    1.106666
 C    1.240759   -0.459206    2.256744
 O    0.952555   -0.435294    3.626108
 C    1.023068   -1.874596    1.688683
 C    1.405358   -2.031705    0.213790
 C    1.282565   -3.485229   -0.260645
 C   -0.136504   -4.065313   -0.260456
 C   -0.076854   -5.521818   -0.722051
 C   -1.077714   -3.270942   -1.163099
 N    2.767738   -1.588660   -0.008002
 C    3.087943   -0.455372   -0.672401
 O    2.237319    0.270165   -1.168131
 C    0.463492    0.613195    1.452156
 C    0.436771    1.950595    2.213066
 C   -0.333250    2.985391    1.445829
 C    0.185177    3.525427    0.274144
 C   -0.529794    4.468704   -0.441242
 C   -1.774417    4.883737    0.003043
 C   -2.303893    4.343297    1.162264
 C   -1.587612    3.397646    1.876689
 H   -7.092567   -1.550910   -1.919664
 H   -7.159563    0.592262   -3.130334
 H   -5.273654    2.167037   -2.951929
 H   -4.127269   -2.815487   -0.144360
 H   -5.646162   -2.414959    0.669610
 H   -5.677902   -3.256949   -0.876984
 H   -2.095050    1.416058   -1.909670
 H   -3.188056    2.794209   -2.059734
 H   -2.794886    2.144268   -0.467435
 H    4.240604    0.929272   -2.581833
 H    6.629811    1.493260   -2.872199
 H    7.524911   -0.554058    0.770582
 H    9.238644    0.352413   -0.646517
 H    8.880398    1.178090   -2.093762
 H    5.169106   -1.110962    1.053614
 H   -3.700794   -1.236338    1.726893
 H   -3.828749    0.513337    1.461272
 H   -1.159299    0.284266    0.137154
 H    2.305203   -0.200657    2.183693
 H   -0.020862   -0.477935    3.720323
 H    1.618185   -2.561933    2.295525
 H   -0.025585   -2.141310    1.820456
 H    0.780650   -1.387194   -0.409308
 H    1.916345   -4.111233    0.374565
 H    1.677192   -3.539393   -1.278942
 H   -0.528771   -4.049913    0.761247
 H    0.288075   -5.580102   -1.745386
 H   -1.064670   -5.975080   -0.685135
 H    0.588220   -6.102475   -0.086506
 H   -1.308445   -2.295836   -0.743562
 H   -0.632834   -3.129641   -2.145686
 H   -2.014247   -3.809753   -1.291639
 H    3.500700   -2.161995    0.376504
 H    0.978795    0.760256    0.500505
 H   -0.014358    1.796088    3.193652
 H    1.469097    2.273823    2.358079
 H    1.154328    3.202316   -0.077155
 H   -0.114178    4.883877   -1.347705
 H   -2.330704    5.624575   -0.552482
 H   -3.276624    4.658962    1.511777
 H   -2.003466    2.977416    2.782088
