80 
1lf2_ligand_aiqm1.xyz
 C   -3.409481    1.065114   -1.728544
 C   -3.887594   -0.069390   -1.061712
 C   -5.199336   -0.532664   -1.222882
 C   -6.048861    0.184066   -2.067985
 C   -5.604483    1.320400   -2.734374
 C   -4.291503    1.745440   -2.567905
 C   -5.675894   -1.781438   -0.530159
 C   -1.991689    1.539597   -1.547372
 C    4.218541   -0.061510   -0.982712
 C    4.454230    0.568644   -2.206505
 C    5.716821    1.024485   -2.546449
 C    6.785201    0.881009   -1.650936
 C    6.549730    0.267878   -0.414530
 N    8.041200    1.400645   -1.953614
 C    5.283309   -0.195928   -0.088567
 O   -3.004646   -0.786294   -0.266157
 C   -3.292603   -0.788821    1.128455
 C   -2.041307   -0.454807    1.934616
 O   -2.064352   -0.555446    3.161171
 N   -0.987490   -0.089046    1.201796
 C    1.030418   -0.633951    2.586377
 O    0.578267   -0.678447    3.927106
 C    1.009452   -2.039108    1.978932
 C    1.419508   -2.137210    0.511008
 C    1.500061   -3.585672    0.023208
 C    0.207716   -4.394596    0.129316
 C    0.442705   -5.802472   -0.412620
 C   -0.948915   -3.730590   -0.617233
 N    2.703604   -1.465642    0.279937
 C    2.830508   -0.532098   -0.696086
 O    1.865857   -0.079884   -1.305879
 C    0.289232    0.408656    1.723188
 C    0.101074    1.747148    2.458792
 C   -0.552258    2.795696    1.591493
 C    0.144094    3.417306    0.549258
 C   -0.487518    4.341912   -0.280989
 C   -1.830725    4.661540   -0.085062
 C   -2.533713    4.051909    0.952505
 C   -1.896639    3.129190    1.781883
 H   -7.065360   -0.163390   -2.209987
 H   -6.275529    1.865764   -3.384860
 H   -3.935407    2.624419   -3.091447
 H   -4.909499   -2.556347   -0.551783
 H   -5.928948   -1.602852    0.516733
 H   -6.570216   -2.165234   -1.019965
 H   -1.265781    0.764229   -1.806346
 H   -1.789094    2.405138   -2.176526
 H   -1.804053    1.845974   -0.521462
 H    3.621222    0.692967   -2.884530
 H    5.879211    1.513165   -3.500566
 H    7.359290    0.172302    0.299824
 H    8.807587    0.966729   -1.465336
 H    8.229814    1.503006   -2.937545
 H    5.127571   -0.632141    0.891189
 H   -3.641641   -1.779585    1.432280
 H   -4.067731   -0.062500    1.375362
 H   -1.153309   -0.042405    0.208717
 H    2.068507   -0.288143    2.638201
 H   -0.392150   -0.709134    3.895833
 H    1.671374   -2.664713    2.586808
 H    0.002968   -2.447218    2.088723
 H    0.707759   -1.608907   -0.115638
 H    2.291359   -4.101642    0.584593
 H    1.811186   -3.570298   -1.028721
 H   -0.066535   -4.482659    1.185906
 H    0.678509   -5.759665   -1.479207
 H   -0.446401   -6.422463   -0.290683
 H    1.273580   -6.292691    0.098013
 H   -1.242658   -2.771949   -0.183374
 H   -0.674827   -3.562737   -1.662146
 H   -1.828738   -4.377463   -0.607622
 H    3.538846   -1.913844    0.617703
 H    0.911104    0.600107    0.847846
 H   -0.500787    1.586792    3.350890
 H    1.086149    2.080882    2.787293
 H    1.189193    3.179915    0.374153
 H    0.070132    4.806400   -1.085722
 H   -2.323075    5.379150   -0.729668
 H   -3.577236    4.291826    1.116283
 H   -2.452072    2.659080    2.588257
