44 
1lhu_ligand_ani-2x.xyz
 C    3.047006   -1.661154   -0.027328
 C    4.381109   -1.585586    0.343778
 C    4.923446   -0.354897    0.706477
 O    6.224614   -0.204347    1.080138
 C    4.114730    0.774462    0.692295
 C    2.772686    0.696287    0.322315
 C    1.944161    1.967568    0.375871
 C    0.605763    1.859602   -0.350368
 C   -0.084893    0.549004    0.018945
 C    0.763773   -0.627356   -0.520785
 C    2.213076   -0.536886   -0.050960
 C    0.101290   -1.994245   -0.243822
 C   -1.366489   -2.062247   -0.696749
 C   -2.180945   -0.895160   -0.132748
 C   -1.496305    0.422365   -0.541051
 C   -2.551032    1.497742   -0.236153
 C   -3.909706    0.785612   -0.494822
 C   -3.558160   -0.694926   -0.776352
 O   -4.487861   -1.630575   -0.267386
 C   -2.347643   -1.045067    1.386805
 H    2.656522   -2.635233   -0.305012
 H    4.997316   -2.483466    0.349897
 H    6.661201   -1.064463    1.044075
 H    4.549166    1.728238    0.981787
 H    2.530938    2.803279   -0.024016
 H    1.762798    2.210033    1.433255
 H   -0.021847    2.724551   -0.098925
 H    0.767623    1.892162   -1.437743
 H   -0.115628    0.488456    1.117519
 H    0.775147   -0.502819   -1.619342
 H    0.175604   -2.219407    0.828377
 H    0.654724   -2.783831   -0.761832
 H   -1.405818   -2.029523   -1.795588
 H   -1.824736   -3.012282   -0.395405
 H   -1.390212    0.385331   -1.641239
 H   -2.424127    2.390440   -0.859334
 H   -2.480468    1.826134    0.808709
 H   -4.455916    1.219945   -1.338050
 H   -4.567614    0.847195    0.380301
 H   -3.440881   -0.837614   -1.864628
 H   -5.326137   -1.486952   -0.723686
 H   -2.939258   -0.236536    1.828123
 H   -2.865970   -1.982206    1.606530
 H   -1.381145   -1.061125    1.897925
