44 
1lhu_ligand_xtb.xyz
 C    3.051555   -1.625802   -0.135679
 C    4.373615   -1.549770    0.258154
 C    4.887436   -0.344783    0.714965
 O    6.182091   -0.207943    1.120461
 C    4.058729    0.766040    0.751868
 C    2.731691    0.689729    0.354654
 C    1.908246    1.946913    0.432230
 C    0.609370    1.843130   -0.355532
 C   -0.077380    0.530418    0.004479
 C    0.762718   -0.634620   -0.545481
 C    2.201889   -0.526560   -0.083186
 C    0.116039   -1.985063   -0.199752
 C   -1.346143   -2.072161   -0.650712
 C   -2.160424   -0.896004   -0.118470
 C   -1.479656    0.404325   -0.572646
 C   -2.519195    1.486132   -0.270453
 C   -3.867843    0.784058   -0.524522
 C   -3.546910   -0.711772   -0.765298
 O   -4.502796   -1.590665   -0.222296
 C   -2.342040   -1.019426    1.395302
 H    2.686432   -2.574017   -0.496963
 H    5.006785   -2.426134    0.207530
 H    6.637086   -1.054101    1.034841
 H    4.469258    1.703128    1.095780
 H    2.503923    2.790569    0.076111
 H    1.675199    2.139891    1.484886
 H   -0.034188    2.691244   -0.116979
 H    0.817189    1.867914   -1.427563
 H   -0.123124    0.460606    1.094703
 H    0.766808   -0.545131   -1.642144
 H    0.191440   -2.152106    0.875529
 H    0.658135   -2.792254   -0.693248
 H   -1.380777   -2.065454   -1.743658
 H   -1.779049   -3.013929   -0.309673
 H   -1.380765    0.349818   -1.664886
 H   -2.395070    2.356369   -0.913814
 H   -2.437126    1.820633    0.763508
 H   -4.385994    1.212382   -1.383061
 H   -4.526752    0.868529    0.340253
 H   -3.457797   -0.896794   -1.848896
 H   -5.355131   -1.403745   -0.628046
 H   -2.831581   -0.143351    1.807448
 H   -2.971786   -1.882385    1.595530
 H   -1.394207   -1.157359    1.904528
