51 
1lhv_ligand_xtb.xyz
 C    2.940351   -1.764721   -0.842129
 C    4.432880   -1.972636   -0.618534
 C    5.170383   -0.661343   -0.773843
 C    4.491025    0.468538   -0.145126
 C    3.244500    0.420875    0.339163
 C    2.688303    1.558257    1.137913
 C    1.295243    1.961267    0.661560
 C    0.371655    0.746746    0.675121
 C    0.927899   -0.327271   -0.273744
 C    2.343661   -0.771195    0.161589
 C   -0.027680   -1.523057   -0.371709
 C   -1.440381   -1.107294   -0.787912
 C   -2.004497   -0.088605    0.198756
 C   -1.036382    1.111104    0.218726
 C   -1.803359    2.185106    0.991614
 C   -3.260393    1.981418    0.542755
 C   -3.298302    0.642915   -0.259970
 C   -2.233346   -0.696994    1.597750
 C   -2.891699   -2.074599    1.609762
 C   -3.248517    0.954908   -1.686319
 C   -3.330323    1.223555   -2.850577
 O    6.249150   -0.568885   -1.319321
 O   -4.460055   -0.116249    0.015174
 H    2.786032   -1.382915   -1.854459
 H    2.432928   -2.726535   -0.761877
 H    4.837973   -2.705530   -1.317571
 H    4.612627   -2.335720    0.397728
 H    5.085188    1.366460   -0.039717
 H    3.367062    2.411516    1.098672
 H    2.619647    1.235113    2.182281
 H    0.902014    2.742682    1.313114
 H    1.356719    2.364896   -0.351418
 H    0.346513    0.352146    1.695551
 H    1.012358    0.123282   -1.270353
 H    2.256400   -1.264093    1.140430
 H    0.346031   -2.228673   -1.114241
 H   -0.058312   -2.037368    0.589940
 H   -2.085263   -1.982329   -0.855712
 H   -1.398695   -0.654492   -1.781411
 H   -0.954162    1.459879   -0.819228
 H   -1.696287    2.033013    2.065716
 H   -1.450909    3.187805    0.753883
 H   -3.938748    1.900598    1.392561
 H   -3.604022    2.805452   -0.083780
 H   -2.870096   -0.022718    2.168668
 H   -1.281178   -0.768294    2.123905
 H   -3.805667   -2.061819    1.025620
 H   -2.229580   -2.841996    1.217217
 H   -3.141870   -2.341807    2.634940
 H   -5.216776    0.333116   -0.375756
 H   -3.350246    1.456289   -3.873699
