48 
1lhw_ligand_aiqm1.xyz
 C    2.844633   -0.344331   -0.092385
 C    1.723650    0.500000   -0.184815
 C    0.139144   -1.490716    0.083437
 C   -1.259171   -2.051125   -0.213496
 C   -2.346063   -1.081502    0.247047
 C   -2.106098    0.278910   -0.426113
 C   -3.409777    1.057423   -0.183732
 C   -4.501685   -0.048466   -0.127327
 C   -3.745489   -1.384350   -0.289527
 C   -2.394006   -1.009287    1.785519
 C    4.109759    0.174889    0.118138
 C    4.295729    1.555041    0.244576
 C    3.200709    2.392787    0.158727
 C    1.913637    1.882816   -0.055570
 C    0.762977    2.861440   -0.101243
 C   -0.516106    2.255814   -0.664612
 C   -0.771231    0.892105   -0.033964
 C    0.343527   -0.075137   -0.474837
 O   -4.341737   -2.479999    0.393397
 O    5.542867    2.060475    0.449853
 O    5.269075   -0.551309    0.220253
 C    5.150449   -1.956496    0.100771
 H    2.720300   -1.413281   -0.182597
 H    0.885296   -2.167907   -0.339999
 H    0.316537   -1.478490    1.163592
 H   -1.363154   -2.208431   -1.294643
 H   -1.391191   -3.025699    0.262604
 H   -2.049675    0.072972   -1.510171
 H   -3.606329    1.782627   -0.973563
 H   -3.364969    1.608603    0.757699
 H   -5.009160   -0.052239    0.838578
 H   -5.265980    0.075022   -0.898845
 H   -3.668494   -1.629935   -1.359894
 H   -1.410767   -0.835561    2.224584
 H   -2.772874   -1.954614    2.174561
 H   -3.060333   -0.216514    2.137128
 H    3.365913    3.459948    0.259861
 H    1.056773    3.739866   -0.679558
 H    0.577627    3.218374    0.917552
 H   -0.426396    2.134269   -1.750700
 H   -1.352942    2.937854   -0.490808
 H   -0.735397    1.001195    1.057030
 H    0.258107   -0.147878   -1.570385
 H   -5.162063   -2.693143   -0.054252
 H    6.144073    1.307033    0.476248
 H    4.726389   -2.233946   -0.866916
 H    6.157750   -2.353776    0.185866
 H    4.526064   -2.365432    0.897933
