62 
1lke_ligand_aiqm1.xyz
 O   -7.340015   -0.084172    1.360065
 C   -6.330350    0.359450    0.887661
 C   -5.286955   -0.312175    0.096012
 O   -5.967781    1.668502    1.045170
 C   -4.739373    1.908833    0.367587
 C   -4.324151    0.570090   -0.203186
 C   -3.058275    0.328063   -0.983621
 C   -2.351445    1.635512   -1.439975
 C   -1.938299   -0.458670   -0.220839
 C   -2.450263   -1.514198    0.768282
 C   -1.053890   -1.126823   -1.290316
 O   -1.830511   -2.157692   -1.903413
 C   -1.121439    0.669369    0.464424
 C   -1.078085    1.801316   -0.572052
 O   -1.877333    1.216575    1.556742
 C    0.257931    0.216504    0.966091
 C    1.043854    1.393474    1.555250
 C    1.081411   -0.511950   -0.114780
 C    0.245905   -1.654091   -0.704634
 C    2.464282   -0.977027    0.422547
 C    2.303718   -2.080808    1.491309
 C    3.227760    0.230586    1.025488
 C    2.396618    0.939612    2.101279
 C    3.678400    1.230630   -0.052990
 C    4.528766    0.580249   -1.136895
 O    5.737893    0.035436   -0.600997
 C    3.773401   -0.577396   -1.763841
 C    3.342624   -1.581453   -0.697135
 H   -5.324693   -1.365712   -0.139508
 H   -4.013216    2.299626    1.076276
 H   -4.916748    2.661188   -0.400000
 H   -3.349267   -0.262641   -1.857653
 H   -2.083916    1.563366   -2.493754
 H   -3.005398    2.498125   -1.343681
 H   -1.628106   -2.004055    1.295320
 H   -3.005188   -2.286298    0.240338
 H   -3.107122   -1.082182    1.518653
 H   -0.793193   -0.371548   -2.047095
 H   -1.316148   -2.534282   -2.618764
 H   -1.051633    2.760316   -0.057687
 H   -0.174467    1.732196   -1.183996
 H   -2.013127    0.531406    2.215188
 H    0.058943   -0.501171    1.775747
 H    1.192747    2.146602    0.774375
 H    0.456356    1.877344    2.338868
 H    1.271879    0.207295   -0.927476
 H    0.021134   -2.391445    0.069444
 H    0.794186   -2.178115   -1.494869
 H    1.954704   -3.011630    1.037422
 H    3.274888   -2.284331    1.949196
 H    1.606387   -1.825426    2.291027
 H    4.137390   -0.171176    1.487690
 H    2.240576    0.269182    2.951958
 H    2.951663    1.801504    2.484291
 H    4.250241    2.038309    0.420687
 H    2.813208    1.700781   -0.529310
 H    4.776031    1.328876   -1.899968
 H    6.252276    0.756639   -0.232777
 H    4.412481   -1.061898   -2.504785
 H    2.905513   -0.174875   -2.298965
 H    4.241938   -1.979218   -0.220015
 H    2.835186   -2.434897   -1.155311
