87 
1ll4_ligand_aiqm1.xyz
 C   -3.549770   -1.492446   -0.799595
 C   -4.662065   -0.440317   -0.858824
 C   -6.004556   -1.099342   -0.586442
 C   -6.203111   -2.278467   -1.534077
 C   -5.001089   -3.230954   -1.471877
 C   -5.057120   -4.321128   -2.523769
 C   -3.736352    1.747302   -0.305962
 C   -3.261112    2.628623    0.817500
 N   -4.410212    0.630644    0.071657
 O   -5.989223   -1.542315    0.766790
 O   -7.402388   -2.912931   -1.124388
 O   -3.796007   -2.526473   -1.740301
 O   -6.199572   -5.134486   -2.249459
 O   -3.516168    1.998365   -1.482677
 C    0.565306    0.827391   -0.268556
 C    0.296534    0.322153   -1.695736
 C   -0.052985   -1.168485   -1.679763
 C   -1.151313   -1.480662   -0.668636
 C   -0.838299   -0.908483    0.716746
 C    0.149246   -1.754398    1.512904
 C   -0.267813    2.290951   -2.966627
 C   -1.337409    3.118574   -3.629457
 N   -0.686432    1.168729   -2.338401
 O   -0.376838   -1.683194   -2.958227
 O   -2.358912   -0.891587   -1.188027
 O   -0.436538    0.462552    0.658424
 O    0.295522   -1.258270    2.822149
 O    0.923258    2.596937   -3.010736
 C    4.733599    2.449681    1.100989
 C    4.148279    2.034819    2.483373
 C    3.063754    0.992355    2.170709
 C    2.613390    1.397835    0.784155
 C    3.927684    1.665453    0.052216
 C    3.772238    2.368159   -1.287344
 C    6.282376    1.162869    2.225116
 C    6.207616   -1.162386    2.834380
 C    7.069945   -0.509281    0.709648
 N    5.287580    1.494149    3.235180
 N    6.099061   -0.194006    1.751533
 O    1.959182    1.015547    3.073442
 O    1.831634    0.391977    0.143473
 O    2.892414    3.476068   -1.153734
 O    6.109835    2.082498    1.156345
 H   -3.472201   -1.934380    0.206610
 H   -4.668403   -0.013490   -1.857574
 H   -6.812809   -0.376085   -0.728926
 H   -6.293215   -1.894392   -2.560589
 H   -4.960318   -3.687130   -0.472574
 H   -5.138948   -3.865739   -3.514465
 H   -4.140510   -4.910379   -2.476232
 H   -2.254087    2.308290    1.085747
 H   -3.898949    2.546401    1.696316
 H   -3.222700    3.659200    0.475481
 H   -4.518448    0.426537    1.051745
 H   -6.766323   -2.097918    0.872638
 H   -7.397055   -3.807526   -1.482131
 H   -6.284408   -5.788792   -2.942712
 H    0.510939    1.913438   -0.284531
 H    1.212615    0.447146   -2.270290
 H    0.846750   -1.695197   -1.358246
 H   -1.279188   -2.564353   -0.595505
 H   -1.771736   -0.883277    1.286222
 H   -0.245414   -2.770421    1.597499
 H    1.112788   -1.798338    0.994460
 H   -1.546521    2.688247   -4.609605
 H   -0.966165    4.130973   -3.764363
 H   -2.257242    3.116088   -3.047621
 H   -1.676483    1.025781   -2.183870
 H   -1.307443   -1.488587   -3.108882
 H    0.673365   -0.371842    2.755162
 H    4.677252    3.522682    0.922506
 H    3.696031    2.876860    3.007255
 H    3.516024    0.001628    2.135810
 H    2.043649    2.329839    0.859641
 H    4.428734    0.711210   -0.106726
 H    3.400768    1.664203   -2.031978
 H    4.749887    2.730360   -1.624535
 H    7.305072    1.301321    2.612762
 H    6.024440   -2.159155    2.431518
 H    7.207487   -1.155828    3.299032
 H    5.459419   -0.948041    3.596152
 H    8.104332   -0.459942    1.086315
 H    6.962016    0.182694   -0.124599
 H    6.884295   -1.522720    0.351972
 H    5.667876    2.235686    3.807519
 H    2.259392    0.667215    3.916670
 H    2.201966    3.374009   -1.818893
