87 
1ll4_ligand_xtb.xyz
 C   -3.485271   -1.499775   -0.877118
 C   -4.603100   -0.437917   -0.884017
 C   -5.925331   -1.112353   -0.521639
 C   -6.181823   -2.319735   -1.442828
 C   -4.951473   -3.247076   -1.448162
 C   -5.086241   -4.365814   -2.484609
 C   -3.569188    1.693235   -0.302636
 C   -3.104868    2.543351    0.848899
 N   -4.292826    0.606764    0.055085
 O   -5.856243   -1.533977    0.819736
 O   -7.316938   -2.972974   -0.932372
 O   -3.777024   -2.544188   -1.783434
 O   -6.195493   -5.176249   -2.152805
 O   -3.327662    1.947764   -1.467139
 C    0.538427    0.877045   -0.304259
 C    0.338763    0.364880   -1.748273
 C    0.014715   -1.137717   -1.753884
 C   -1.105742   -1.464123   -0.752389
 C   -0.798394   -0.888925    0.639116
 C    0.269521   -1.702578    1.397782
 C   -0.266603    2.347531   -2.980208
 C   -1.376501    3.096341   -3.665375
 N   -0.639205    1.157263   -2.453360
 O   -0.306702   -1.610887   -3.028985
 O   -2.308026   -0.896008   -1.275902
 O   -0.485617    0.493312    0.571572
 O    0.421676   -1.241984    2.708257
 O    0.887431    2.745992   -2.938507
 C    4.751128    2.448213    1.139597
 C    4.134973    2.070198    2.518219
 C    3.003387    1.076307    2.207266
 C    2.585427    1.466825    0.786919
 C    3.924862    1.702177    0.080611
 C    3.784625    2.458341   -1.248229
 C    6.195524    1.087678    2.256882
 C    5.918306   -1.224389    2.836767
 C    6.782250   -0.625894    0.690007
 N    5.227882    1.468009    3.266908
 N    5.888276   -0.245377    1.767725
 O    1.907033    1.176470    3.089471
 O    1.806328    0.483902    0.138425
 O    2.930701    3.572416   -1.130260
 O    6.101996    2.039044    1.225809
 H   -3.405016   -1.917708    0.144683
 H   -4.646172    0.007764   -1.882466
 H   -6.753726   -0.396495   -0.639886
 H   -6.360851   -1.958245   -2.467684
 H   -4.856521   -3.691510   -0.442962
 H   -5.213551   -3.912121   -3.475709
 H   -4.156088   -4.944893   -2.483762
 H   -2.163543    2.125051    1.205758
 H   -3.826386    2.547807    1.660564
 H   -2.922474    3.557615    0.505384
 H   -4.413536    0.366149    1.027127
 H   -6.599797   -2.141177    0.946956
 H   -7.333876   -3.870127   -1.299141
 H   -6.240490   -5.913528   -2.770378
 H    0.465240    1.974380   -0.321284
 H    1.290687    0.519042   -2.270273
 H    0.919498   -1.672260   -1.447106
 H   -1.220244   -2.553782   -0.692797
 H   -1.714519   -0.903526    1.244797
 H   -0.063959   -2.741805    1.470681
 H    1.220128   -1.664961    0.853466
 H   -1.607677    2.603712   -4.607585
 H   -1.058126    4.114545   -3.868823
 H   -2.267016    3.090648   -3.044323
 H   -1.619768    0.991727   -2.261276
 H   -1.185516   -1.272245   -3.247756
 H    0.739650   -0.320749    2.674551
 H    4.744767    3.522785    0.941329
 H    3.718762    2.929313    3.048123
 H    3.404852    0.056531    2.195029
 H    2.033904    2.413198    0.839735
 H    4.389222    0.732368   -0.106003
 H    3.411956    1.767276   -2.008930
 H    4.780743    2.805560   -1.554471
 H    7.228390    1.137695    2.657713
 H    5.555608   -2.173055    2.445184
 H    6.933011   -1.369650    3.238166
 H    5.267925   -0.890998    3.641173
 H    7.812269   -0.784344    1.044395
 H    6.789460    0.161111   -0.060270
 H    6.415131   -1.548696    0.244182
 H    5.644153    2.146978    3.894053
 H    2.206555    0.932659    3.972812
 H    2.203677    3.463144   -1.763337
