61 
1lnm_ligand_aiqm1.xyz
 O   -7.354013    0.253449   -1.540177
 C   -6.371796    0.411265   -0.869240
 C   -5.113278    1.101709   -1.194392
 O   -6.269390   -0.082289    0.400493
 C   -5.003715    0.268709    0.950490
 C   -4.279336    1.014698   -0.149339
 C   -2.878186    1.559752   -0.038510
 C   -2.348429    1.625069    1.421236
 C   -1.777582    0.753880   -0.805834
 C   -0.641157    1.742238   -1.129454
 C    0.638161    1.039821   -1.576307
 C   -2.259241    0.099200   -2.105066
 C   -1.278569   -0.262516    0.251405
 C   -1.256226    0.534649    1.563381
 O   -2.283452   -1.271691    0.461984
 C    0.061662   -0.921221   -0.107137
 C    0.535315   -1.846331    1.021155
 C    1.156180    0.100690   -0.479346
 C    2.495711   -0.598022   -0.850343
 C    3.629449    0.424949   -1.092907
 C    2.361996   -1.413282   -2.156170
 C    2.941135   -1.533117    0.303848
 C    1.845039   -2.544586    0.659069
 C    3.375965   -0.747679    1.552904
 C    4.480659    0.258908    1.256891
 C    4.041219    1.204402    0.153842
 O    5.669666   -0.386576    0.791384
 H   -4.934600    1.552559   -2.160239
 H   -4.482714   -0.637852    1.247742
 H   -5.176525    0.879337    1.835779
 H   -2.909945    2.566302   -0.465450
 H   -3.147350    1.474484    2.142717
 H   -1.929705    2.611258    1.619602
 H   -0.427863    2.350394   -0.243183
 H   -0.988038    2.437131   -1.901032
 H    1.389608    1.789439   -1.831964
 H    0.447676    0.463858   -2.485908
 H   -1.454013   -0.448139   -2.597035
 H   -3.080468   -0.593649   -1.937866
 H   -2.607889    0.862238   -2.804285
 H   -1.446576   -0.133862    2.400602
 H   -0.273258    0.985274    1.719819
 H   -2.326635   -1.831176   -0.316352
 H   -0.137667   -1.540157   -0.994978
 H    0.672902   -1.251872    1.930390
 H   -0.239703   -2.581734    1.251660
 H    1.348455    0.715687    0.414505
 H    4.498202   -0.135389   -1.448700
 H    3.352723    1.108995   -1.899806
 H    2.253105   -0.751062   -3.018649
 H    1.516206   -2.103253   -2.163966
 H    3.270939   -2.000979   -2.309063
 H    3.823522   -2.077986   -0.053111
 H    2.177739   -3.168175    1.494967
 H    1.677400   -3.221846   -0.184128
 H    3.723233   -1.451880    2.319549
 H    2.527345   -0.210646    1.986237
 H    4.709436    0.822472    2.170313
 H    3.209743    1.811912    0.528761
 H    4.860737    1.887623   -0.078732
 H    5.986296   -0.965583    1.487743
