61 
1lnm_ligand_xtb.xyz
 O   -7.431186    0.432871   -1.225645
 C   -6.376173    0.503872   -0.657539
 C   -5.177203    1.277483   -1.010878
 O   -6.103673   -0.178545    0.484383
 C   -4.789914    0.102975    0.917242
 C   -4.223748    1.046375   -0.101352
 C   -2.839192    1.600264   -0.083662
 C   -2.235398    1.711746    1.325417
 C   -1.796718    0.739168   -0.863233
 C   -0.648258    1.677888   -1.265921
 C    0.620115    0.944942   -1.683745
 C   -2.388228    0.083984   -2.109512
 C   -1.302479   -0.289420    0.192440
 C   -1.332758    0.484627    1.523208
 O   -2.240118   -1.349323    0.342887
 C    0.063595   -0.927394   -0.157069
 C    0.509110   -1.851641    0.978974
 C    1.145627    0.095925   -0.525528
 C    2.508563   -0.576676   -0.829645
 C    3.633962    0.457683   -1.029346
 C    2.451289   -1.396902   -2.127808
 C    2.923331   -1.497650    0.339370
 C    1.835351   -2.525888    0.653786
 C    3.306982   -0.716121    1.601323
 C    4.431686    0.286075    1.335034
 C    4.009952    1.241625    0.221987
 O    5.630256   -0.346504    0.933769
 H   -5.138473    1.905023   -1.879500
 H   -4.208767   -0.822702    0.978516
 H   -4.842707    0.544857    1.917942
 H   -2.893196    2.583199   -0.561481
 H   -3.008310    1.768745    2.088253
 H   -1.649011    2.627935    1.398354
 H   -0.400881    2.331156   -0.428758
 H   -0.989961    2.311067   -2.088078
 H    1.361349    1.688365   -1.977141
 H    0.418209    0.316462   -2.550276
 H   -1.637417   -0.510902   -2.624564
 H   -3.232274   -0.555320   -1.863478
 H   -2.741085    0.849918   -2.795897
 H   -1.725938   -0.178872    2.291198
 H   -0.331195    0.791366    1.816167
 H   -2.202126   -1.907207   -0.442063
 H   -0.116831   -1.553169   -1.040816
 H    0.606998   -1.281795    1.902212
 H   -0.259012   -2.608436    1.149549
 H    1.291347    0.760968    0.329765
 H    4.526001   -0.083819   -1.348909
 H    3.370894    1.152697   -1.827017
 H    2.397063   -0.738229   -2.990842
 H    1.599950   -2.069419   -2.157247
 H    3.354131   -1.995780   -2.225918
 H    3.823009   -2.036253    0.019328
 H    2.147475   -3.138895    1.502678
 H    1.708187   -3.194047   -0.199171
 H    3.626315   -1.426852    2.370289
 H    2.454634   -0.166920    1.998474
 H    4.620187    0.863219    2.258397
 H    3.180111    1.856067    0.572788
 H    4.847140    1.901540   -0.008928
 H    5.859514   -1.015605    1.587039
