39 
1lox_ligand_dft.xyz
 C   -0.273352    3.150444    0.687040
 O   -1.449759    2.514309    0.889003
 O   -0.237544    4.352591    0.629270
 C    0.948881    2.315644    0.533409
 C    0.973757    1.057611    0.076237
 C    2.194040    0.272065   -0.162485
 C    3.414377    0.893595   -0.448659
 C    4.568146    0.151836   -0.660204
 C    4.521318   -1.238940   -0.596136
 C    3.319372   -1.877528   -0.327306
 C    2.148400   -1.138670   -0.112326
 C    0.927611   -1.835823    0.166086
 C   -0.079273   -2.465170    0.395845
 C   -1.324092   -3.186599    0.666126
 C   -2.326375   -2.369302    1.503645
 C   -2.615479   -0.976556    0.940790
 C   -3.127750   -0.967575   -0.499836
 C   -3.541818    0.422055   -0.985363
 C   -4.030637    0.419477   -2.432137
 H   -1.304188    1.573341    1.057927
 H    1.864523    2.853668    0.759301
 H    0.042852    0.541691   -0.158988
 H    3.452390    1.975269   -0.532282
 H    5.501331    0.658352   -0.885598
 H    5.419045   -1.825523   -0.764481
 H    3.269489   -2.960312   -0.279082
 H   -1.094503   -4.124242    1.185813
 H   -1.781906   -3.469983   -0.289709
 H   -1.941027   -2.272833    2.524905
 H   -3.258887   -2.943567    1.566610
 H   -1.683674   -0.394856    0.996413
 H   -3.340620   -0.473054    1.592483
 H   -3.984433   -1.652246   -0.582930
 H   -2.350490   -1.360686   -1.169414
 H   -2.696466    1.114811   -0.887211
 H   -4.329382    0.815808   -0.329742
 H   -3.247015    0.063814   -3.111132
 H   -4.899341   -0.238112   -2.553430
 H   -4.322034    1.424071   -2.753987
