39 
1lox_ligand_ani-2x.xyz
 C  -27.756103  149.533762   54.665551
 O  -26.794246  150.338808   54.141373
 O  -27.741789  148.355751   54.421726
 C  -28.799054  150.165892   55.511728
 C  -28.732662  151.379513   56.080169
 C  -29.837785  152.033799   56.797476
 C  -31.167812  151.636741   56.619978
 C  -32.200115  152.270163   57.292791
 C  -31.925554  153.322013   58.163510
 C  -30.613918  153.734961   58.350894
 C  -29.566588  153.106960   57.678540
 C  -28.211149  153.535980   57.905793
 C  -27.060198  153.853101   58.093071
 C  -25.652644  154.188829   58.331482
 C  -24.887854  153.081222   59.079897
 C  -24.913239  151.711568   58.394743
 C  -24.230876  151.682940   57.026743
 C  -24.264889  150.305265   56.365698
 C  -23.563375  150.284144   55.010779
 H  -26.951368  151.257309   54.399081
 H  -29.637792  149.501421   55.693259
 H  -27.807489  151.952304   56.053407
 H  -31.403463  150.836010   55.922521
 H  -33.225493  151.943009   57.138639
 H  -32.733347  153.819315   58.692832
 H  -30.393337  154.556122   59.027991
 H  -25.594690  155.119205   58.909819
 H  -25.170958  154.402965   57.369013
 H  -25.308847  152.985799   60.088415
 H  -23.847677  153.408339   59.208383
 H  -25.956325  151.378105   58.291260
 H  -24.422583  150.980762   59.052324
 H  -23.184969  152.009480   57.134761
 H  -24.708160  152.412726   56.356906
 H  -25.308926  149.985293   56.241193
 H  -23.796283  149.570592   57.034847
 H  -24.006409  151.013189   54.324064
 H  -22.499957  150.531549   55.113624
 H  -23.633679  149.297798   54.540119
