39 
1lox_ligand_xtb.xyz
 C  -28.532743  148.333483   56.762576
 O  -27.280347  148.543273   57.215298
 O  -28.899310  147.222113   56.484457
 C  -29.413276  149.511031   56.624445
 C  -29.210366  150.702465   57.200707
 C  -30.069957  151.867310   57.104862
 C  -31.375743  151.805636   56.617235
 C  -32.162979  152.937419   56.544766
 C  -31.662055  154.164084   56.958580
 C  -30.373841  154.253673   57.447178
 C  -29.570800  153.117634   57.528649
 C  -28.249349  153.231993   58.019138
 C  -27.120895  153.325177   58.429438
 C  -25.758188  153.356580   58.912052
 C  -25.126541  151.958035   58.867350
 C  -25.022195  151.396755   57.447663
 C  -23.914480  152.047408   56.621122
 C  -23.815767  151.430664   55.227794
 C  -22.702823  152.067114   54.404560
 H  -27.090552  149.480925   57.355284
 H  -30.293935  149.309470   56.033552
 H  -28.328170  150.871027   57.811667
 H  -31.781956  150.855094   56.308501
 H  -33.172329  152.866344   56.168220
 H  -32.279467  155.048151   56.901905
 H  -29.973757  155.202660   57.773186
 H  -25.755275  153.728660   59.941022
 H  -25.178183  154.053894   58.302053
 H  -25.731515  151.284022   59.479828
 H  -24.130737  152.004788   59.312611
 H  -25.976350  151.542383   56.932110
 H  -24.824224  150.323262   57.505229
 H  -22.959009  151.925052   57.137069
 H  -24.104155  153.118016   56.519453
 H  -24.769063  151.558131   54.709145
 H  -23.630914  150.358101   55.320182
 H  -22.879413  153.133787   54.282261
 H  -21.741088  151.933759   54.895301
 H  -22.649854  151.613325   53.417954
