77 
1lpg_ligand_xtb.xyz
 C    3.299973    9.725496   24.245308
 C    4.096014    9.326209   25.344654
 C    5.261654    8.625949   25.182727
 C    5.651608    8.307599   23.882116
 C    4.873035    8.708608   22.771017
 C    3.680675    9.421342   22.955918
 C    5.558988    8.256774   21.624439
 N    6.737054    7.618973   23.429964
 C    6.700693    7.603696   22.056131
 C    7.794542    7.146878   24.287708
 C    7.719158    6.946159   21.240616
 N    7.742594    7.351020   19.938479
 C    8.738953    6.853359   19.015249
 C    8.284613    5.589531   18.331613
 O    8.497714    6.090551   21.639815
 C    8.567189    8.283687   24.913862
 C    9.769092    9.203874   26.793190
 C    9.024765    8.179544   26.219141
 C    8.847022    9.431636   24.184602
 C    9.586729   10.455426   24.750808
 C   10.052801   10.342797   26.046331
 C   10.290800    9.104227   28.173748
 N    9.551694    8.344548   29.048538
 N   11.390863    9.674457   28.434165
 C    7.738890    3.240264   18.482461
 C    7.431004    3.214100   17.130111
 C    7.544787    4.380683   16.382897
 C    7.964634    5.555047   16.981239
 C    8.162457    4.419215   19.070820
 N    6.986232    1.968781   16.443416
 C    7.948974    1.642412   15.370615
 C    5.640718    2.186671   15.872547
 C    6.910595    0.809138   17.351832
 O    2.179181   10.409561   24.591684
 C    1.319936   10.870378   23.568968
 C    0.179660   11.627380   24.197733
 C   -1.119259   11.460526   23.738935
 C   -2.158429   12.176096   24.307909
 C   -1.908503   13.056892   25.345974
 C   -0.614888   13.222368   25.811350
 C    0.425508   12.514800   25.237131
 H    3.744979    9.599880   26.326679
 H    5.858856    8.339946   26.033787
 H    3.099880    9.715123   22.096416
 H    5.223021    8.371714   20.611345
 H    8.468275    6.529425   23.687173
 H    7.358201    6.515458   25.068962
 H    7.095691    8.053599   19.624781
 H    9.634241    6.626177   19.605722
 H    8.970806    7.628221   18.283106
 H    8.826645    7.275818   26.778823
 H    8.489600    9.523321   23.168607
 H    9.803182   11.342434   24.174474
 H   10.643925   11.120769   26.500963
 H    9.810256    8.375008   30.022155
 H    8.576925    8.184063   28.860998
 H   11.709966    9.568938   29.393891
 H    7.668845    2.367469   19.107774
 H    7.313823    4.402500   15.329353
 H    8.049407    6.447744   16.380960
 H    8.407316    4.438160   20.122189
 H    7.992680    2.439617   14.633129
 H    8.941888    1.513518   15.798759
 H    7.653299    0.721058   14.871272
 H    4.946507    2.454607   16.667579
 H    5.655343    2.990862   15.141518
 H    5.290713    1.278445   15.384403
 H    7.888504    0.595247   17.778658
 H    6.195212    0.996517   18.150186
 H    6.580806   -0.064777   16.791804
 H    0.934821   10.023502   22.983446
 H    1.873342   11.538687   22.888948
 H   -1.319606   10.769328   22.932260
 H   -3.165774   12.041231   23.942812
 H   -2.720287   13.611440   25.792250
 H   -0.415474   13.907100   26.622193
 H    1.435363   12.637796   25.597464
