36 
1lq2_ligand_ani-2x.xyz
 C    2.816283    0.342495   -0.030975
 C    3.660885   -0.699968    0.359181
 C    5.038420   -0.526113    0.353657
 C    5.588187    0.691244   -0.040992
 C    4.751348    1.733943   -0.429825
 C    3.372920    1.562175   -0.425246
 C   -0.457797   -0.934505    0.299393
 C   -1.485303   -1.954607    0.668519
 C   -2.744145   -1.725504   -0.151569
 C   -3.217009   -0.290615    0.015085
 C   -2.187503    0.697579   -0.538281
 C   -2.502510    2.112550   -0.062143
 O   -1.043663   -3.271432    0.438775
 O   -3.784779   -2.575621    0.283383
 O   -4.420614   -0.064627   -0.686821
 N   -0.827148    0.292104   -0.165367
 O   -2.405680    2.140884    1.346252
 N    0.836749   -1.069094    0.399167
 C    1.363135    0.135721   -0.018545
 C    0.345753    0.982879   -0.382411
 H    3.214912   -1.642319    0.664485
 H    5.686067   -1.344264    0.658861
 H    6.666413    0.826416   -0.044979
 H    5.174256    2.686135   -0.738325
 H    2.728607    2.384117   -0.729400
 H   -1.752196   -1.821508    1.734186
 H   -2.509601   -1.909586   -1.213006
 H   -3.349390   -0.098030    1.091950
 H   -2.271491    0.675523   -1.631117
 H   -3.516062    2.364321   -0.404347
 H   -1.803490    2.824711   -0.526883
 H   -0.086854   -3.276247    0.593459
 H   -3.444320   -3.479099    0.225451
 H   -5.035037   -0.754144   -0.398595
 H   -2.725568    2.995691    1.656245
 H    0.326626    1.988791   -0.778724
