24 
1lrh_ligand_dft.xyz
 C    0.517893   -0.112090   -0.292032
 C   -0.543567    0.823022   -0.521705
 C   -0.306992    2.168191   -0.354794
 C    0.965826    2.653733    0.026595
 C    1.995234    1.778554    0.237434
 C    1.799412    0.379670    0.085806
 C    2.855733   -0.539652    0.310675
 C    2.654162   -1.888579    0.175567
 C    1.381165   -2.379332   -0.189512
 C    0.339744   -1.515790   -0.417815
 C   -1.916920    0.335105   -0.916106
 C   -2.666407   -0.404729    0.194182
 O   -2.481594    0.073937    1.437856
 O   -3.405612   -1.330222   -0.010514
 H   -1.111028    2.878157   -0.534456
 H    1.117445    3.722087    0.144113
 H    2.978020    2.140538    0.527605
 H    3.830854   -0.153552    0.595957
 H    3.469392   -2.583506    0.351963
 H    1.225022   -3.449171   -0.287108
 H   -0.632660   -1.917262   -0.685474
 H   -1.886247   -0.333282   -1.779832
 H   -2.541571    1.190473   -1.200840
 H   -1.803275    0.767164    1.419554
