24 
1lrh_ligand_ani-2x.xyz
 C   67.051809   41.419478   23.380257
 C   67.347734   40.997189   24.722802
 C   68.655455   41.008557   25.147396
 C   69.718340   41.331611   24.271188
 C   69.463553   41.661739   22.968868
 C   68.123715   41.720758   22.495294
 C   67.836143   42.091826   21.154694
 C   66.546343   42.191030   20.709416
 C   65.476382   41.927143   21.591135
 C   65.723456   41.556029   22.888686
 C   66.223111   40.603673   25.658573
 C   66.608449   39.681338   26.812723
 O   67.385095   38.626756   26.480239
 O   66.233446   39.834289   27.942720
 H   68.894793   40.755374   26.177504
 H   70.738946   41.299072   24.643218
 H   70.274188   41.898807   22.283627
 H   68.668637   42.303583   20.487100
 H   66.338624   42.478712   19.681782
 H   64.452549   42.014390   21.237244
 H   64.884079   41.374616   23.555096
 H   65.429054   40.076560   25.107229
 H   65.754932   41.481924   26.115836
 H   67.611669   38.671646   25.538873
