36 
1lt6_ligand_xtb.xyz
 C   -0.697450   -0.522670    0.777115
 C   -1.982581   -1.333852    0.556249
 C   -2.296322   -1.369984   -0.948933
 C   -2.429711    0.081126   -1.440225
 C   -1.145680    0.854684   -1.094437
 C   -1.255861    2.350468   -1.423901
 C    1.633522   -0.851372    0.424521
 C    1.997593    0.312178    1.087600
 C    3.347172    0.569491    1.298834
 C    4.338972   -0.297528    0.864951
 C    3.962543   -1.449963    0.196057
 C    2.627271   -1.726696   -0.024089
 N    3.717314    1.785629    1.981586
 O    0.351015   -1.209879    0.145666
 O   -1.828699   -2.617506    1.088127
 O   -3.463509   -2.107277   -1.186861
 O   -3.584887    0.607088   -0.833470
 O   -0.846665    0.783046    0.296717
 O   -2.243243    2.983456   -0.648632
 O    4.895759    1.979816    2.186497
 O    2.827816    2.543243    2.306227
 H   -0.499014   -0.422858    1.853421
 H   -2.802378   -0.800039    1.067085
 H   -1.484682   -1.884896   -1.472600
 H   -2.547848    0.086162   -2.537241
 H   -0.318958    0.417118   -1.673097
 H   -0.278767    2.821264   -1.262974
 H   -1.546851    2.479074   -2.468472
 H    1.268708    1.029694    1.429721
 H    5.374015   -0.058398    1.050458
 H    4.715886   -2.138427   -0.153039
 H    2.320039   -2.622574   -0.539161
 H   -2.422958   -3.200705    0.594853
 H   -4.210132   -1.533270   -0.963954
 H   -3.502236    1.576262   -0.813586
 H   -1.988993    2.887993    0.278787
