36 
1lt6_ligand_ani-2x.xyz
 C   -0.722066   -0.593441    0.825609
 C   -2.017282   -1.340749    0.560210
 C   -2.318145   -1.359046   -0.937356
 C   -2.379787    0.073163   -1.454537
 C   -1.083305    0.803167   -1.083871
 C   -1.118771    2.288460   -1.404666
 C    1.619293   -0.882444    0.450903
 C    1.946885    0.289135    1.128865
 C    3.290532    0.600780    1.268826
 C    4.312332   -0.196499    0.778091
 C    3.959068   -1.363687    0.111452
 C    2.624950   -1.712934   -0.056027
 N    3.635814    1.841583    1.981200
 O    0.331929   -1.302916    0.220544
 O   -1.920067   -2.650426    1.058149
 O   -3.532525   -2.048798   -1.156986
 O   -3.527855    0.649051   -0.860020
 O   -0.823710    0.718756    0.327336
 O   -2.112726    2.967313   -0.645456
 O    4.818631    2.111421    2.105149
 O    2.720484    2.526283    2.404986
 H   -0.523820   -0.524857    1.902138
 H   -2.830397   -0.785032    1.054998
 H   -1.533357   -1.914943   -1.458976
 H   -2.486182    0.067215   -2.553342
 H   -0.256809    0.339568   -1.638294
 H   -0.127846    2.724371   -1.220644
 H   -1.376174    2.437837   -2.457736
 H    1.210499    0.964802    1.541590
 H    5.344737    0.098569    0.920798
 H    4.738323   -2.009285   -0.283082
 H    2.345647   -2.624731   -0.575325
 H   -2.650271   -3.126373    0.635651
 H   -4.236336   -1.419421   -0.931873
 H   -3.397607    1.615108   -0.836581
 H   -1.923885    2.738902    0.278077
