91 
1m13_ligand_aiqm1.xyz
 C    5.779864   -1.865684    0.791917
 C    3.715501    3.511783    2.014864
 C    1.979933    5.004348    3.101627
 C   -1.468891   -2.576437   -3.614542
 C   -1.395078   -2.442724   -2.091267
 C   -1.607295   -3.813022   -1.438580
 C   -0.025151   -1.895460   -1.693730
 O    0.971762   -2.529849   -1.961450
 C    1.295784    2.819113    2.153733
 C    2.271731    3.706698    2.394950
 C    1.474506    1.473957    1.497328
 C    2.010122    0.313806   -2.181709
 C   -3.715703    1.984539   -3.943384
 C   -5.661994    1.295141   -2.473466
 C   -4.250706    1.820083   -2.545595
 C   -3.576457    2.099125   -1.420440
 C   -2.177546    2.640615   -1.311205
 C   -0.892421    0.453552   -1.541872
 O   -1.187523    0.365177   -2.710134
 O   -2.131128    2.092299    1.460751
 O   -0.254637   -2.157177    1.029161
 C   -3.369832   -3.242630    2.439158
 C   -5.553139   -1.956682    2.390037
 C   -4.048658   -1.900303    2.438169
 C   -3.412347   -0.722814    2.484213
 C   -1.923050   -0.501559    2.565847
 C    0.021147   -0.583773   -0.858315
 C   -0.551060   -0.928784    0.505530
 C   -1.331267   -0.104134    1.223169
 C   -1.605024    1.266418    0.736917
 C   -1.163834    1.663424   -0.674674
 C    0.217097    2.365304   -0.595112
 C    1.375241    1.503660   -0.050549
 C    1.465826    0.096634   -0.747573
 C    2.440529   -0.815117    0.028694
 C    3.902628   -0.339257   -0.022352
 C    4.754136   -1.030105    1.004814
 C    6.531633   -2.472647    1.949033
 C    6.288639   -2.279913   -0.562878
 H    4.043352    4.322355    1.358493
 H    4.347841    3.555175    2.905353
 H    3.905207    2.564165    1.506756
 H    0.925715    5.085593    3.366521
 H    2.250088    5.856837    2.474249
 H    2.573472    5.082593    4.014978
 H   -1.386032   -1.606958   -4.103718
 H   -0.663910   -3.223411   -3.965499
 H   -2.421526   -3.026928   -3.895466
 H   -2.172904   -1.763744   -1.741098
 H   -0.826444   -4.504988   -1.755733
 H   -1.609666   -3.751624   -0.350126
 H   -2.569223   -4.215459   -1.755713
 H    0.285457    3.083716    2.458877
 H    2.453739    1.075126    1.760481
 H    0.756958    0.783030    1.931575
 H    2.929387    0.895095   -2.142445
 H    2.228867   -0.642687   -2.652434
 H    1.304759    0.849066   -2.819119
 H   -2.738461    2.462407   -3.971271
 H   -3.623114    1.008215   -4.427261
 H   -4.409232    2.579744   -4.543461
 H   -5.981150    1.156860   -1.439722
 H   -5.742396    0.340563   -2.997111
 H   -6.353458    1.985396   -2.962039
 H   -4.088182    1.931290   -0.475716
 H   -1.795118    2.943269   -2.286930
 H   -2.189388    3.533920   -0.683523
 H    0.399417   -2.605318    0.477249
 H   -3.664362   -3.808308    1.549794
 H   -2.283195   -3.165567    2.442293
 H   -3.683503   -3.829004    3.306295
 H   -5.945507   -2.503911    3.250678
 H   -5.892278   -2.485790    1.495975
 H   -5.988358   -0.956034    2.388839
 H   -4.017258    0.180380    2.452962
 H   -1.741130    0.309678    3.274484
 H   -1.427877   -1.390896    2.950672
 H    0.469697    2.697509   -1.607049
 H    0.104216    3.273157   -0.008201
 H    2.274433    2.031589   -0.380578
 H    2.114067   -0.889016    1.069203
 H    2.411854   -1.822174   -0.395786
 H    3.961654    0.744704    0.141686
 H    4.299739   -0.509597   -1.026232
 H    4.477536   -0.839839    2.040886
 H    7.589454   -2.204661    1.901782
 H    6.478476   -3.563036    1.912629
 H    6.131149   -2.136649    2.907130
 H    7.327295   -1.965278   -0.691740
 H    5.702136   -1.869379   -1.383149
 H    6.274066   -3.368384   -0.649505
