87 
1m21_ligand_aiqm1.xyz
 C    0.690281    3.650915   -2.431244
 C    1.342201    4.432626   -1.476570
 C    2.481622    3.941495   -0.840406
 C    3.001397    2.676724   -1.148106
 C    2.318874    1.893082   -2.087288
 C    1.176187    2.377711   -2.723515
 C    4.284921    2.222562   -0.473769
 C    4.579762    0.731122   -0.559968
 C    5.974135    0.368637   -0.065376
 C    3.105214   -1.202331   -0.341345
 C    1.912135   -1.786179    0.442798
 C    1.525783   -3.174673   -0.040716
 C    2.577721   -4.257735    0.207936
 C    2.041563   -5.604029   -0.273562
 C    2.982323   -4.346253    1.678339
 C    0.660322    0.228300    1.070126
 C   -0.405522    1.244385    0.590508
 C   -0.275768    2.575615    1.331357
 C   -0.688559    2.561430    2.796668
 C   -0.562588    3.974711    3.340673
 C   -1.210129    4.842727    1.133270
 C   -2.280288   -0.037190   -0.332753
 C   -4.289371   -1.113410   -1.208872
 C   -5.442465   -0.383167   -1.861772
 C   -4.833091   -2.365799   -0.486910
 C   -3.752979   -3.130198    0.236118
 C   -3.334385   -2.734057    1.509857
 C   -2.340337   -3.432961    2.186315
 C   -1.753404   -4.554574    1.602539
 C   -2.159383   -4.955692    0.329532
 C   -3.147950   -4.245565   -0.348042
 N    3.566454   -0.035561    0.150850
 N    0.782463   -0.863215    0.308065
 N   -1.104225    3.554231    0.619856
 N   -1.272527    5.831496    0.318855
 N   -1.345304    4.893550    2.515277
 N   -1.772180    0.749954    0.666054
 N   -3.629127   -0.208127   -0.301408
 O    3.571720   -1.727505   -1.346797
 O    1.407574    0.477543    2.016833
 O   -1.567148   -0.591758   -1.169549
 O   -5.855241   -0.994446   -2.983904
 O   -5.962100    0.605561   -1.412075
 O    6.235007   -1.019760   -0.154033
 H   -0.186099    4.032100   -2.940259
 H    0.949913    5.407999   -1.211250
 H    2.984392    4.555229   -0.099982
 H    2.671576    0.897646   -2.333792
 H    0.663455    1.750835   -3.442392
 H    4.261754    2.524098    0.579408
 H    5.124529    2.756771   -0.927858
 H    4.533524    0.414074   -1.604111
 H    6.706582    0.926503   -0.663583
 H    6.092125    0.667101    0.982608
 H    2.176623   -1.803150    1.498502
 H    0.592716   -3.452212    0.458828
 H    1.324937   -3.120317   -1.114093
 H    3.465245   -4.012868   -0.380324
 H    1.169086   -5.900581    0.318425
 H    1.738308   -5.556560   -1.320048
 H    2.796899   -6.384967   -0.171738
 H    3.666082   -5.182382    1.834179
 H    2.104868   -4.511741    2.312856
 H    3.487228   -3.443681    2.026217
 H   -0.151615    1.433038   -0.455555
 H    0.781822    2.852051    1.275922
 H   -0.048167    1.882564    3.352592
 H   -1.722746    2.225273    2.906508
 H   -0.944730    4.030303    4.359579
 H    0.493477    4.268243    3.362497
 H   -3.570094   -1.413421   -1.969203
 H   -5.318287   -3.004836   -1.226141
 H   -5.597564   -2.048478    0.227994
 H   -3.787355   -1.860798    1.966660
 H   -2.028733   -3.105082    3.169846
 H   -0.982900   -5.101587    2.133269
 H   -1.705914   -5.816651   -0.146273
 H   -3.453027   -4.566408   -1.338459
 H    3.146901    0.331191    0.995491
 H    0.131016   -0.982503   -0.462628
 H   -0.883909    3.601932   -0.365360
 H   -1.433562    6.703249    0.816651
 H   -1.334081    5.843698    2.853107
 H   -2.417293    1.365704    1.135226
 H   -4.220001    0.435896    0.198567
 H   -6.610568   -0.491288   -3.314734
 H    5.609885   -1.410361   -0.777624
