87 
1m21_ligand_ani-2x.xyz
 C    0.684892    3.810497   -2.411973
 C    1.321743    4.387960   -1.314796
 C    2.507206    3.838312   -0.831437
 C    3.071069    2.702139   -1.424558
 C    2.413263    2.131889   -2.516893
 C    1.236027    2.683868   -3.011435
 C    4.397549    2.162510   -0.913411
 C    4.564597    0.643611   -0.942347
 C    5.984523    0.215066   -0.544899
 C    3.124158   -1.246149   -0.313881
 C    1.912703   -1.683613    0.535982
 C    1.470590   -3.109112    0.226935
 C    2.414470   -4.234616    0.670973
 C    1.905651   -5.568578    0.117333
 C    2.552213   -4.311597    2.193855
 C    0.729495    0.403650    0.972936
 C   -0.391809    1.362111    0.536600
 C   -0.288365    2.689227    1.303819
 C   -0.608884    2.624306    2.795993
 C   -0.434462    4.022740    3.373821
 C   -1.230862    4.938057    1.225961
 C   -2.254541   -0.059473   -0.262514
 C   -4.267965   -1.168524   -1.069808
 C   -5.426346   -0.419789   -1.699220
 C   -4.792643   -2.467213   -0.412287
 C   -3.689575   -3.283594    0.223563
 C   -3.409771   -3.167096    1.587397
 C   -2.396651   -3.918739    2.174246
 C   -1.646679   -4.797698    1.397585
 C   -1.902105   -4.907718    0.032915
 C   -2.913072   -4.150603   -0.550017
 N    3.562421    0.008099   -0.094297
 N    0.797164   -0.772075    0.327662
 N   -1.225596    3.649559    0.715089
 N   -1.288531    5.936059    0.419606
 N   -1.235103    4.987845    2.617336
 N   -1.737633    0.807340    0.668863
 N   -3.601743   -0.298660   -0.133692
 O    3.647655   -1.993914   -1.143961
 O    1.569965    0.728160    1.816185
 O   -1.566575   -0.613754   -1.119251
 O   -5.913068   -1.056604   -2.777548
 O   -5.897847    0.606978   -1.271791
 O    6.303303   -1.083864   -0.969874
 H   -0.233417    4.241926   -2.806678
 H    0.876398    5.257065   -0.833799
 H    2.992745    4.291171    0.031300
 H    2.822844    1.249554   -3.002639
 H    0.743652    2.225995   -3.865661
 H    4.558132    2.517376    0.115262
 H    5.213559    2.597494   -1.508672
 H    4.416502    0.268310   -1.962534
 H    6.706383    0.897253   -1.013245
 H    6.095612    0.319845    0.547746
 H    2.198069   -1.573864    1.590597
 H    0.492997   -3.253927    0.706888
 H    1.311050   -3.191827   -0.856592
 H    3.401286   -4.036416    0.234660
 H    0.914904   -5.810602    0.524105
 H    1.815649   -5.535519   -0.974528
 H    2.581590   -6.390299    0.379393
 H    3.207575   -5.141150    2.482613
 H    1.572940   -4.482140    2.664122
 H    2.974566   -3.395279    2.621374
 H   -0.196755    1.570025   -0.527512
 H    0.747977    3.040745    1.191571
 H    0.049107    1.909923    3.294691
 H   -1.646021    2.304669    2.941806
 H   -0.767710    4.049714    4.414941
 H    0.634838    4.291857    3.356948
 H   -3.545697   -1.435392   -1.848245
 H   -5.304878   -3.051428   -1.184135
 H   -5.545540   -2.202977    0.339806
 H   -3.992985   -2.474936    2.191101
 H   -2.193545   -3.819053    3.237405
 H   -0.850196   -5.378980    1.858744
 H   -1.302767   -5.575855   -0.583375
 H   -3.105061   -4.234624   -1.618332
 H    3.153787    0.536244    0.672193
 H    0.130956   -0.948664   -0.421910
 H   -1.190367    3.692126   -0.296816
 H   -1.336391    6.809980    0.940071
 H   -1.167951    5.932851    2.967785
 H   -2.398905    1.436293    1.104846
 H   -4.186392    0.386158    0.326925
 H   -6.663744   -0.526463   -3.093861
 H    5.474259   -1.588361   -1.059752
