30 
1m2r_ligand_aiqm1.xyz
 C   21.542555    7.698165   21.484812
 C   21.874078    7.618241   20.131755
 C   22.835548    6.686028   19.695876
 C   23.457211    5.841939   20.616787
 C   23.110266    5.927416   21.969164
 C   22.167844    6.841023   22.396381
 C   23.183472    6.617702   18.246669
 C   22.929367    7.831486   17.438844
 C   21.962012    8.769499   17.877414
 C   21.223800    8.518368   19.135336
 C   21.679136    9.909548   17.118927
 C   22.399487   10.101841   15.919715
 C   23.336187    9.193543   15.495101
 C   23.620080    8.027434   16.239090
 O   20.128183    9.020785   19.348548
 O   23.652450    5.601997   17.750061
 O   20.648581    8.631558   21.907335
 N   20.797821   10.890842   17.540936
 N   24.625572    7.179224   15.806075
 O   24.418789    4.976543   20.197967
 H   23.585518    5.268809   22.688658
 H   21.908825    6.894158   23.448707
 H   22.197704   10.989649   15.329657
 H   23.875591    9.362682   14.569073
 H   20.582072    8.556628   22.862380
 H   20.075803   10.573204   18.168969
 H   20.478326   11.497792   16.806158
 H   24.554184    6.229969   16.138457
 H   24.841800    7.266431   14.828300
 H   24.750740    4.516299   20.972649
