30 
1m2r_ligand_ani-2x.xyz
 C   21.533350    7.672838   21.533749
 C   22.032203    7.749997   20.218107
 C   23.000567    6.808465   19.777904
 C   23.447269    5.804529   20.660111
 C   22.936369    5.752712   21.948951
 C   21.993342    6.674182   22.379869
 C   23.554736    6.867915   18.388255
 C   23.057546    7.947799   17.471516
 C   22.088848    8.884929   17.909654
 C   21.532761    8.824410   19.302712
 C   21.621450    9.906346   17.034110
 C   22.155792    9.942889   15.738043
 C   23.100445    9.029600   15.310947
 C   23.580561    8.012229   16.148290
 O   20.696299    9.629804   19.676587
 O   24.388093    6.061666   18.009347
 O   20.614624    8.563642   21.969655
 N   20.698583   10.829619   17.392468
 N   24.506559    7.148277   15.670297
 O   24.365747    4.898653   20.255873
 H   23.279760    4.978414   22.633757
 H   21.609476    6.611060   23.397254
 H   21.815003   10.714159   15.049893
 H   23.484549    9.100097   14.295059
 H   20.404515    8.344940   22.886585
 H   20.321781   10.789132   18.328876
 H   20.403062   11.528435   16.733677
 H   24.842150    6.420271   16.284986
 H   24.840941    7.239424   14.727127
 H   24.536617    4.302368   20.996140
