30 
1m2r_ligand_xtb.xyz
 C   21.535515    7.683700   21.496281
 C   22.038264    7.760300   20.183162
 C   22.996271    6.830220   19.748256
 C   23.446842    5.827555   20.628343
 C   22.935208    5.771969   21.921067
 C   21.996140    6.684201   22.347646
 C   23.544299    6.882315   18.380197
 C   23.056882    7.933898   17.497308
 C   22.087986    8.873354   17.936586
 C   21.544126    8.822331   19.287327
 C   21.636454    9.881021   17.053474
 C   22.163562    9.932055   15.743738
 C   23.092098    9.031723   15.322733
 C   23.563837    8.012427   16.179716
 O   20.700632    9.628529   19.687298
 O   24.384519    6.055709   18.016661
 O   20.615689    8.568871   21.930288
 N   20.718229   10.796506   17.419789
 N   24.484052    7.145991   15.712782
 O   24.366081    4.926436   20.227132
 H   23.282507    5.000611   22.596469
 H   21.608802    6.626589   23.356804
 H   21.810465   10.707510   15.078189
 H   23.487658    9.081253   14.317724
 H   20.379396    8.376911   22.847180
 H   20.360995   10.730617   18.368763
 H   20.419151   11.500022   16.770081
 H   24.800260    6.425236   16.355471
 H   24.823535    7.227753   14.772268
 H   24.563543    4.313188   20.947068
