72 
1m7d_ligand_xtb.xyz
 C    2.903787   -0.298015    0.887871
 C    4.093577   -0.682584    1.783697
 O    4.288236    0.254432    2.817558
 C    5.376129   -0.710944    0.947097
 O    6.508120   -0.984133    1.732740
 C    5.535762    0.635009    0.220976
 O    6.667511    0.609734   -0.611351
 C    4.285520    0.909394   -0.623614
 O    3.128993    0.904234    0.208819
 C    4.360801    2.265276   -1.306869
 C   -0.504692   -0.532342   -1.814262
 C    0.994384   -0.406369   -1.543199
 C    1.305395   -1.417418   -0.442083
 O    2.646888   -1.376933    0.029723
 C    1.007825   -2.818073   -0.988290
 O    1.251826   -3.810827   -0.027130
 C   -0.481594   -2.879654   -1.371178
 O   -0.843603   -1.820609   -2.262000
 C   -0.828910   -4.190109   -2.058344
 C   -3.941997    1.694874    0.868965
 C   -2.538521    1.093313    0.722316
 C   -2.422592    0.375191   -0.634745
 C   -3.559338   -0.650160   -0.801132
 C   -4.897727    0.057239   -0.544142
 C   -6.066298   -0.934029   -0.560747
 C   -0.315626    1.820719    1.462681
 C    0.702306    2.932844    1.358362
 C   -5.257935    2.949921    2.360235
 N   -1.503680    2.083225    0.859848
 O   -4.041511    2.266874    2.120578
 O   -1.139968   -0.208324   -0.613102
 O   -3.601251   -1.190477   -2.092086
 O   -4.917377    0.691037    0.721356
 O   -7.295202   -0.286904   -0.387613
 O   -0.086474    0.784276    2.049714
 H    2.017993   -0.093334    1.513810
 H    3.903070   -1.682284    2.204056
 H    3.439217    0.447400    3.231078
 H    5.308671   -1.513671    0.205196
 H    6.434932   -0.443328    2.530712
 H    5.635976    1.429743    0.979590
 H    7.344769    0.098337   -0.147343
 H    4.198225    0.110663   -1.373653
 H    5.275055    2.311053   -1.889592
 H    4.371430    3.051526   -0.556811
 H    3.502494    2.407392   -1.957391
 H   -0.826608    0.137284   -2.627733
 H    1.561931   -0.633194   -2.446142
 H    1.222571    0.603253   -1.206391
 H    0.638005   -1.216686    0.408259
 H    1.629641   -2.993507   -1.881744
 H    2.098982   -3.599686    0.384561
 H   -1.053265   -2.779441   -0.437717
 H   -0.517627   -5.011109   -1.420712
 H   -0.309540   -4.252862   -3.010555
 H   -1.898690   -4.249033   -2.237200
 H   -4.102387    2.461708    0.071485
 H   -2.377440    0.361028    1.520020
 H   -2.486631    1.104671   -1.460997
 H   -3.420549   -1.439545   -0.045099
 H   -5.050919    0.808171   -1.336264
 H   -6.095702   -1.431450   -1.530480
 H   -5.901298   -1.678987    0.229441
 H    0.349726    3.766723    0.759312
 H    0.941939    3.284727    2.359473
 H    1.613964    2.524204    0.923524
 H   -5.424324    3.724878    1.603165
 H   -6.103929    2.259453    2.361149
 H   -5.152718    3.406908    3.341056
 H   -1.615548    2.940372    0.342163
 H   -2.731983   -1.584279   -2.295225
 H   -7.232000    0.233514    0.422354
