19 
1mcz_ligand_aiqm1.xyz
 C   -0.040287   -0.066331   -0.409838
 C   -0.778043   -1.124906    0.128089
 C   -2.097803   -0.930462    0.521425
 C   -2.692893    0.321977    0.383842
 C   -1.962347    1.376687   -0.154529
 C   -0.638638    1.184950   -0.550025
 C    1.401369   -0.302602   -0.837739
 C    2.189857   -0.776636    0.384208
 O    2.013809    0.804545   -1.445866
 O    2.352997   -1.923215    0.699581
 O    2.655010    0.263962    1.105853
 H   -0.312849   -2.097536    0.240034
 H   -2.660385   -1.756507    0.936178
 H   -3.718924    0.471996    0.691555
 H   -2.419505    2.351103   -0.270299
 H   -0.075019    1.999444   -0.985568
 H    1.435053   -1.119157   -1.558305
 H    2.235738    1.430106   -0.748318
 H    3.112960   -0.107619    1.869822
