64 
1me3_ligand_ani-2x.xyz
 C   -3.298112   -1.640542    2.022887
 C   -4.464244   -0.749465    2.401610
 O   -5.168756   -1.278504    3.482348
 O   -3.062014   -2.632755    2.685096
 C   -2.411979   -1.243617    0.838780
 C   -2.226285   -2.437264   -0.101804
 C   -1.259007   -2.177164   -1.266880
 C   -1.694794   -1.060666   -2.191921
 C   -1.276457    0.258231   -1.980124
 C   -1.691447    1.279266   -2.829562
 C   -2.543416    1.003046   -3.895455
 C   -2.976634   -0.300676   -4.108574
 C   -2.555076   -1.321936   -3.262965
 N   -1.132628   -0.777371    1.347543
 C   -0.994061    0.477827    1.842303
 O   -1.941675    1.225999    2.044142
 C    0.463054    0.902376    2.096983
 C    0.518328    2.197147    2.909461
 C    1.930738    2.660111    3.188385
 C    2.431628    3.829903    2.612030
 C    3.738773    4.244912    2.856064
 C    4.564303    3.491900    3.684590
 C    4.076148    2.325466    4.267614
 C    2.771145    1.913137    4.018752
 N    1.144130    1.046511    0.816389
 C    1.766613   -0.016304    0.246751
 O    1.619368   -1.183610    0.580270
 O    2.551620    0.387587   -0.769046
 C    3.222475   -0.669682   -1.481255
 C    2.326105   -1.294533   -2.514845
 C    1.784537   -0.537385   -3.549468
 C    0.978001   -1.165246   -4.489359
 C    0.732656   -2.528861   -4.351722
 N    1.228175   -3.267000   -3.356987
 C    2.001032   -2.647489   -2.465665
 H   -5.128203   -0.647194    1.528453
 H   -4.048961    0.250071    2.607718
 H   -4.636864   -2.024431    3.804828
 H   -2.887529   -0.405240    0.308248
 H   -1.866109   -3.281595    0.496710
 H   -3.207361   -2.726978   -0.497725
 H   -0.263580   -1.954539   -0.866800
 H   -1.156287   -3.103628   -1.841744
 H   -0.613058    0.490051   -1.145448
 H   -1.353557    2.298210   -2.653519
 H   -2.871618    1.803480   -4.554336
 H   -3.646215   -0.525228   -4.936153
 H   -2.895734   -2.340889   -3.445062
 H   -0.291225   -1.316853    1.168112
 H    0.961163    0.085171    2.638144
 H   -0.019338    2.032280    3.848636
 H   -0.036679    2.970648    2.369764
 H    1.788806    4.427177    1.966311
 H    4.110929    5.157286    2.396556
 H    5.584862    3.812781    3.877564
 H    4.714959    1.732308    4.917292
 H    2.396460    0.998406    4.476547
 H    1.529691    1.950453    0.580043
 H    3.573101   -1.422607   -0.771088
 H    4.076820   -0.170599   -1.944869
 H    1.997304    0.528638   -3.613812
 H    0.548605   -0.610099   -5.321210
 H    0.107789   -3.058028   -5.070742
 H    2.380084   -3.262801   -1.648885
