80 
1mes_ligand_ani-2x.xyz
 C   -0.022265    0.057310   -1.133932
 C    1.359711   -0.835609    0.752910
 C    0.807878   -0.111610    1.980045
 C   -0.712380    0.032858    2.032259
 C   -1.324648    0.811118    0.871211
 C    2.355154    0.081239   -1.342966
 C    3.627016    0.485136   -0.641402
 C    4.777982   -0.303196   -0.720731
 C    5.943444    0.065368   -0.057114
 C    5.984971    1.236008    0.701598
 C    4.842986    2.033078    0.768739
 C    3.676627    1.663155    0.106410
 C    7.248264    1.614951    1.446632
 C    0.862554   -2.291062    0.612905
 C    1.632523   -3.058994   -0.439150
 C    2.947912   -3.464173   -0.191188
 C    3.685569   -4.138317   -1.159308
 C    3.122078   -4.403386   -2.405217
 C    1.818935   -3.993284   -2.671784
 C    1.081452   -3.328635   -1.693881
 C   -0.852241    2.281723    0.788403
 C   -1.681666    3.097930   -0.179796
 C   -2.989811    3.464316    0.151920
 C   -3.780913    4.184362   -0.737656
 C   -3.278705    4.536883   -1.988097
 C   -1.983265    4.167068   -2.337964
 C   -1.192062    3.455270   -1.438223
 C   -2.404877    0.021399   -1.239127
 C   -3.641849   -0.452124   -0.519624
 C   -4.805755    0.320492   -0.496813
 C   -5.941067   -0.118371    0.176206
 C   -5.938740   -1.345350    0.840991
 C   -4.783770   -2.125660    0.806052
 C   -3.646978   -1.684601    0.135786
 C   -7.168901   -1.803256    1.596935
 N    1.190931   -0.016028   -0.451996
 N   -1.204432    0.070240   -0.393488
 O   -0.049694    0.108482   -2.357212
 O    1.157816   -0.806827    3.180351
 O   -1.069537    0.687343    3.234582
 O    8.430031    1.179710    0.802889
 O   -8.379123   -1.338839    1.031188
 H    2.438478   -0.896363    0.921436
 H    1.255668    0.893998    1.998856
 H   -1.162327   -0.973864    2.011015
 H   -2.392893    0.839264    1.096979
 H    2.507402   -0.868247   -1.873651
 H    2.094386    0.824995   -2.100157
 H    4.750970   -1.225606   -1.299626
 H    6.838485   -0.548899   -0.118004
 H    4.869064    2.955017    1.345936
 H    2.802135    2.311433    0.157229
 H    7.267537    1.133236    2.431411
 H    7.264487    2.701923    1.626141
 H   -0.205009   -2.294633    0.376898
 H    0.976215   -2.760757    1.596614
 H    3.401070   -3.252339    0.776603
 H    4.705540   -4.450377   -0.942956
 H    3.697906   -4.927664   -3.163707
 H    1.373583   -4.195338   -3.642320
 H    0.064809   -3.003268   -1.910717
 H    0.201428    2.314016    0.494857
 H   -0.918885    2.699504    1.799748
 H   -3.394580    3.183405    1.123742
 H   -4.794669    4.463580   -0.456981
 H   -3.896254    5.097347   -2.685383
 H   -1.585576    4.437207   -3.312619
 H   -0.182024    3.161436   -1.720737
 H   -2.591239    1.003142   -1.694093
 H   -2.168333   -0.661926   -2.058532
 H   -4.813409    1.284651   -1.003540
 H   -6.846258    0.483594    0.194990
 H   -4.775801   -3.090217    1.309361
 H   -2.760770   -2.318063    0.107997
 H   -7.163220   -2.901100    1.690102
 H   -7.159600   -1.401065    2.616917
 H    2.099587   -0.669471    3.339885
 H   -0.502033    0.288935    3.911995
 H    8.479667    1.633707   -0.048197
 H   -8.453032   -1.725412    0.149133
