80 
1mes_ligand_aiqm1.xyz
 C   -0.417458    0.410884   -1.036731
 C    0.944646   -0.452302    0.844231
 C    0.669120    0.470073    2.033883
 C   -0.780634    0.888425    2.156994
 C   -1.283123    1.686004    0.955219
 C    1.934435    0.059147   -1.376631
 C    3.271951    0.348939   -0.748209
 C    4.127003   -0.698891   -0.394097
 C    5.341184   -0.446905    0.240298
 C    5.730570    0.862173    0.534606
 C    4.884806    1.909559    0.168119
 C    3.667455    1.658824   -0.461732
 C    7.054121    1.120741    1.204614
 C    0.139006   -1.768296    0.887024
 C    0.766332   -2.819060    0.009086
 C    1.806400   -3.615184    0.497633
 C    2.445876   -4.541106   -0.325123
 C    2.055114   -4.681252   -1.653578
 C    1.017787   -3.897473   -2.150589
 C    0.377221   -2.975639   -1.323810
 C   -0.479233    2.969962    0.674796
 C   -1.189104    3.832491   -0.336546
 C   -2.246207    4.657299    0.059770
 C   -2.954053    5.408419   -0.874969
 C   -2.617896    5.344246   -2.224298
 C   -1.569164    4.525208   -2.631633
 C   -0.861604    3.775336   -1.694981
 C   -2.789100    0.835273   -0.848942
 C   -3.527816   -0.416330   -0.434443
 C   -4.460502   -0.422310    0.604307
 C   -5.064698   -1.608292    1.010653
 C   -4.742866   -2.819034    0.394818
 C   -3.821809   -2.812969   -0.652591
 C   -3.219203   -1.625905   -1.064215
 C   -5.409669   -4.091210    0.844560
 N    0.831439    0.281792   -0.424818
 N   -1.448145    0.862526   -0.245666
 O   -0.576768    0.136856   -2.219648
 O    0.985150   -0.195254    3.259130
 O   -0.944952    1.738332    3.281825
 O    8.147519    0.556376    0.484272
 O   -6.832275   -4.022282    0.751547
 H    1.991488   -0.726187    0.961482
 H    1.298385    1.356200    1.930053
 H   -1.399451   -0.007895    2.268093
 H   -2.285219    1.998937    1.247228
 H    1.918281   -0.961513   -1.757994
 H    1.751828    0.719074   -2.222017
 H    3.824023   -1.721175   -0.604787
 H    6.002042   -1.262969    0.504541
 H    5.182968    2.930156    0.380968
 H    3.021578    2.486415   -0.736289
 H    7.082551    0.640695    2.184151
 H    7.194535    2.197773    1.349474
 H   -0.896613   -1.603974    0.602294
 H    0.142527   -2.108200    1.923987
 H    2.121746   -3.508074    1.531024
 H    3.250104   -5.147566    0.070961
 H    2.556912   -5.392081   -2.295406
 H    0.712831   -3.992735   -3.184181
 H   -0.399319   -2.336513   -1.725877
 H    0.518914    2.722432    0.315760
 H   -0.371827    3.502758    1.620917
 H   -2.518193    4.706995    1.108737
 H   -3.769234    6.041084   -0.548253
 H   -3.169385    5.925669   -2.950452
 H   -1.303463    4.464145   -3.678889
 H   -0.056863    3.124111   -2.022069
 H   -3.326728    1.730861   -0.539435
 H   -2.665553    0.869204   -1.928989
 H   -4.722244    0.506171    1.101588
 H   -5.795881   -1.605125    1.809054
 H   -3.567684   -3.747273   -1.141159
 H   -2.495608   -1.620898   -1.872389
 H   -5.020925   -4.938719    0.268797
 H   -5.203385   -4.273657    1.899971
 H    1.938716   -0.215304    3.353031
 H   -0.550314    1.283737    4.031044
 H    8.123400    0.913078   -0.406250
 H   -7.052138   -3.796933   -0.154887
