80 
1mes_ligand_xtb.xyz
 C   -0.066381    0.099334   -1.286343
 C    1.214282   -0.896709    0.593466
 C    0.775015   -0.151166    1.865313
 C   -0.729378    0.121153    1.913739
 C   -1.231310    0.963125    0.732802
 C    2.323076   -0.055292   -1.426815
 C    3.482297    0.505358   -0.654401
 C    4.555654   -0.298979   -0.295300
 C    5.602279    0.213278    0.451078
 C    5.596389    1.540979    0.855038
 C    4.524438    2.349113    0.494847
 C    3.480573    1.835705   -0.249717
 C    6.732451    2.098730    1.677708
 C    0.499324   -2.254440    0.439724
 C    1.225113   -3.112300   -0.556184
 C    2.387410   -3.780512   -0.187027
 C    3.095994   -4.527332   -1.110527
 C    2.650492   -4.615546   -2.418959
 C    1.491995   -3.957779   -2.794978
 C    0.783335   -3.211658   -1.869280
 C   -0.527930    2.331721    0.652478
 C   -1.281032    3.246209   -0.269189
 C   -2.449837    3.862506    0.164676
 C   -3.182237    4.665010   -0.690691
 C   -2.755100    4.861563   -1.993881
 C   -1.591243    4.255159   -2.433373
 C   -0.858169    3.453173   -1.575557
 C   -2.459875    0.280295   -1.279092
 C   -3.533322   -0.445317   -0.519042
 C   -4.590447    0.244748    0.058304
 C   -5.554934   -0.426106    0.788472
 C   -5.481335   -1.801653    0.957812
 C   -4.426517   -2.495566    0.377865
 C   -3.464640   -1.823479   -0.350782
 C   -6.530580   -2.530302    1.761118
 N    1.120665   -0.067578   -0.594659
 N   -1.204843    0.249562   -0.530759
 O   -0.094631    0.111752   -2.504178
 O    1.073792   -0.908429    3.024220
 O   -1.057722    0.817924    3.091910
 O    7.943196    1.398351    1.531866
 O   -7.788452   -1.899415    1.762964
 H    2.284415   -1.104878    0.726782
 H    1.311777    0.808815    1.909145
 H   -1.257067   -0.845358    1.903617
 H   -2.285661    1.151034    0.959799
 H    2.556663   -1.063513   -1.789863
 H    2.096405    0.568943   -2.294215
 H    4.573668   -1.334674   -0.606252
 H    6.431281   -0.420048    0.732044
 H    4.511796    3.386022    0.798720
 H    2.656974    2.475077   -0.531985
 H    6.483340    2.023311    2.742252
 H    6.868413    3.164702    1.440041
 H   -0.527768   -2.088490    0.117941
 H    0.487982   -2.737117    1.419640
 H    2.736992   -3.715912    0.834612
 H    3.997500   -5.041363   -0.809475
 H    3.204514   -5.196096   -3.141649
 H    1.139696   -4.021009   -3.813710
 H   -0.109622   -2.687254   -2.175858
 H    0.493182    2.198211    0.296840
 H   -0.508893    2.743110    1.662919
 H   -2.782597    3.707264    1.181463
 H   -4.088676    5.138352   -0.341567
 H   -3.327940    5.486109   -2.663448
 H   -1.253696    4.402674   -3.448550
 H    0.041308    2.971968   -1.931224
 H   -2.762734    1.314632   -1.478377
 H   -2.264646   -0.206115   -2.237793
 H   -4.662145    1.315916   -0.069373
 H   -6.372182    0.117066    1.240136
 H   -4.361920   -3.567789    0.497279
 H   -2.655466   -2.375045   -0.807491
 H   -6.617524   -3.566472    1.399773
 H   -6.225695   -2.566161    2.812922
 H    2.021919   -1.075734    3.054123
 H   -0.626569    0.354013    3.820704
 H    8.198755    1.413391    0.602650
 H   -8.079971   -1.790872    0.850730
