80 
1met_ligand_aiqm1.xyz
 C   -0.653684   -0.350544   -0.945877
 C    1.105561    0.144944    0.726853
 C    1.019843    1.646499    1.009588
 C   -0.398016    2.171440    1.087379
 C   -1.176855    2.002386   -0.215582
 C    1.599102   -1.055024   -1.392120
 C    3.015952   -0.544768   -1.387249
 C    3.984661   -1.159884   -0.588691
 C    5.284293   -0.662067   -0.531044
 C    5.647069    0.464270   -1.273803
 C    4.684999    1.069912   -2.082664
 C    3.383100    0.576349   -2.137313
 C    7.060415    0.980613   -1.215537
 C    0.403587   -0.722571    1.793328
 C    0.903281   -2.142854    1.754435
 C    2.065017   -2.499450    2.445408
 C    2.580272   -3.791875    2.359768
 C    1.940584   -4.747721    1.576000
 C    0.780561   -4.406148    0.886763
 C    0.265284   -3.113943    0.978237
 C   -0.522400    2.687654   -1.430281
 C   -1.469789    2.712891   -2.601816
 C   -2.473072    3.683908   -2.675218
 C   -3.396602    3.678027   -3.717343
 C   -3.333879    2.697127   -4.703097
 C   -2.341340    1.723754   -4.639886
 C   -1.417781    1.731857   -3.597176
 C   -2.960583    0.307414   -0.653791
 C   -3.526713   -0.270146    0.622893
 C   -4.230955    0.506490    1.544748
 C   -4.671038   -0.040596    2.746311
 C   -4.408252   -1.375284    3.059804
 C   -3.717104   -2.156572    2.133868
 C   -3.279711   -1.612077    0.928090
 C   -4.895844   -1.951127    4.362104
 N    0.697773   -0.151999   -0.654364
 N   -1.530022    0.606996   -0.490653
 O   -1.030019   -1.329142   -1.578715
 O    1.613271    1.946115    2.275229
 O   -0.383661    3.565894    1.351753
 O    8.018705   -0.018609   -1.556353
 O   -6.309894   -1.831107    4.514686
 H    2.168953   -0.075447    0.799387
 H    1.562295    2.172477    0.221512
 H   -0.928224    1.641805    1.885519
 H   -2.116932    2.521112   -0.029649
 H    1.566933   -2.061402   -0.975451
 H    1.212525   -1.116913   -2.407135
 H    3.706262   -2.026746    0.004854
 H    6.031473   -1.148360    0.083576
 H    4.959223    1.937423   -2.672620
 H    2.647828    1.062845   -2.769880
 H    7.312600    1.278859   -0.196617
 H    7.163363    1.859060   -1.862401
 H   -0.675889   -0.696058    1.672480
 H    0.634462   -0.279958    2.763704
 H    2.573853   -1.758369    3.054259
 H    3.481706   -4.048622    2.901025
 H    2.344742   -5.747742    1.500920
 H    0.281138   -5.139587    0.267868
 H   -0.612189   -2.839675    0.405551
 H    0.396604    2.172776   -1.707424
 H   -0.259562    3.703590   -1.131378
 H   -2.532249    4.447295   -1.906767
 H   -4.165858    4.438444   -3.756568
 H   -4.052762    2.691172   -5.510973
 H   -2.287305    0.953696   -5.398280
 H   -0.657731    0.958448   -3.543773
 H   -3.477070    1.224739   -0.934286
 H   -3.057706   -0.401444   -1.472938
 H   -4.442071    1.548137    1.325030
 H   -5.226792    0.563374    3.452314
 H   -3.511323   -3.195975    2.365161
 H   -2.733848   -2.215864    0.210989
 H   -4.580890   -2.997267    4.447481
 H   -4.472491   -1.398715    5.201951
 H    2.565835    1.906229    2.177587
 H    0.178838    3.695187    2.120259
 H    7.795624   -0.348934   -2.429262
 H   -6.719285   -2.251019    3.755202
