80 
1met_ligand_ani-2x.xyz
 C   -0.756444   -0.220945   -1.052156
 C    0.901531    0.250221    0.739993
 C    0.800219    1.758178    0.976579
 C   -0.613854    2.335020    0.926879
 C   -1.333173    2.151096   -0.410044
 C    1.496509   -0.974986   -1.354830
 C    2.938723   -0.534741   -1.308716
 C    3.942957   -1.397791   -0.863484
 C    5.270162   -0.985151   -0.806742
 C    5.626671    0.305678   -1.197778
 C    4.630147    1.163327   -1.661866
 C    3.302765    0.749812   -1.717096
 C    7.068741    0.758504   -1.102385
 C    0.145727   -0.586263    1.804659
 C    0.614324   -2.021526    1.879607
 C    1.628154   -2.400982    2.763887
 C    2.092702   -3.713404    2.796621
 C    1.546336   -4.669773    1.947509
 C    0.531397   -4.308024    1.066316
 C    0.066376   -2.994370    1.037372
 C   -0.624790    2.834822   -1.597877
 C   -1.494697    2.877444   -2.835577
 C   -2.536852    3.803064   -2.927771
 C   -3.367332    3.832126   -4.043747
 C   -3.171323    2.925176   -5.081360
 C   -2.143389    1.991516   -4.997433
 C   -1.312623    1.969091   -3.879577
 C   -3.065897    0.335727   -0.670234
 C   -3.414105   -0.404542    0.603904
 C   -3.698321    0.284795    1.785520
 C   -3.908348   -0.396296    2.977976
 C   -3.840159   -1.789702    3.025472
 C   -3.573766   -2.482188    1.843514
 C   -3.363688   -1.799474    0.650899
 C   -4.037392   -2.521381    4.335028
 N    0.576858   -0.061859   -0.660905
 N   -1.664667    0.753966   -0.682456
 O   -1.114144   -1.199633   -1.700231
 O    1.303262    2.109293    2.268449
 O   -0.556166    3.722927    1.194324
 O    7.998939   -0.289431   -1.295054
 O   -4.918062   -1.857328    5.220873
 H    1.962804    0.009940    0.857154
 H    1.408888    2.255302    0.205659
 H   -1.224185    1.830067    1.695237
 H   -2.292697    2.659912   -0.276574
 H    1.410051   -1.994255   -0.955469
 H    1.151563   -1.021650   -2.391811
 H    3.682675   -2.408095   -0.548265
 H    6.046791   -1.661504   -0.457503
 H    4.897495    2.167057   -1.985429
 H    2.548517    1.431389   -2.107064
 H    7.280261    1.144397   -0.098142
 H    7.246744    1.589027   -1.804188
 H   -0.933429   -0.552653    1.618293
 H    0.321390   -0.091489    2.766012
 H    2.058310   -1.665332    3.442779
 H    2.882321   -3.988768    3.492088
 H    1.907921   -5.694810    1.973086
 H    0.099484   -5.050514    0.400396
 H   -0.706445   -2.708283    0.323498
 H    0.305843    2.305288   -1.818718
 H   -0.355530    3.849043   -1.281082
 H   -2.698365    4.507511   -2.111864
 H   -4.171367    4.562048   -4.100951
 H   -3.820785    2.946562   -5.953207
 H   -1.986535    1.281301   -5.806142
 H   -0.510564    1.234816   -3.811802
 H   -3.683888    1.231167   -0.783302
 H   -3.230395   -0.303502   -1.542591
 H   -3.761459    1.373759    1.780564
 H   -4.130438    0.150177    3.889921
 H   -3.534558   -3.569310    1.858828
 H   -3.131554   -2.356422   -0.256114
 H   -4.366026   -3.555234    4.140094
 H   -3.087605   -2.591394    4.879311
 H    2.262494    2.006136    2.251317
 H    0.078139    3.811270    1.921878
 H    7.884173   -0.615727   -2.196856
 H   -5.783145   -1.819615    4.792796
