67 
1mmp_ligand_aiqm1.xyz
 C    1.209581   -1.052190   -1.355436
 O    1.412599   -0.238999   -2.404560
 O    0.100937   -1.302369   -0.940093
 C    2.487762   -1.554163   -0.742268
 C    3.089774   -0.587486    0.307220
 C    2.265783   -0.473490    1.598132
 O    2.719183   -0.880588    2.655924
 N    1.058304    0.136868    1.504193
 C    0.180238    0.282390    2.653837
 C   -0.705658   -0.937627    2.956056
 O   -1.447281   -0.915069    3.927105
 N   -0.575757   -2.000336    2.130811
 C   -1.473512   -3.140548    2.250484
 C   -2.889830   -2.833437    1.767539
 C   -2.946249   -2.217894    0.372391
 C   -4.376869   -1.864426   -0.038170
 C   -4.476181   -0.844466   -1.177114
 C   -4.454796    0.612350   -0.713005
 N   -3.184130    1.066502   -0.185776
 C    3.448184    0.800545   -0.244040
 C    4.439303    0.795074   -1.411424
 C    4.630197    2.221462   -1.921250
 C    5.791121    0.197130   -1.027029
 C   -0.679760    1.550439    2.510076
 C   -1.516337    1.534996    1.266699
 C   -2.780858    1.030149    1.132133
 C   -1.110026    1.933222   -0.053652
 C   -2.161051    1.593084   -0.934475
 C    0.042510    2.548074   -0.570889
 C   -2.070502    1.796146   -2.319188
 C    0.132998    2.767794   -1.938080
 C   -0.909345    2.379479   -2.802778
 H    0.559563    0.155313   -2.644738
 H    2.285171   -2.515361   -0.267688
 H    3.225854   -1.702085   -1.530720
 H    4.010095   -1.065398    0.639447
 H    0.659154    0.313610    0.597857
 H    0.813219    0.389161    3.533079
 H   -0.128675   -1.838723    1.240013
 H   -1.495866   -3.433587    3.299665
 H   -1.042280   -3.960685    1.672925
 H   -3.477521   -3.755413    1.797924
 H   -3.345700   -2.142788    2.481980
 H   -2.512089   -2.907628   -0.362149
 H   -2.324668   -1.324730    0.343132
 H   -4.910524   -1.464701    0.832323
 H   -4.903248   -2.782443   -0.316698
 H   -5.420863   -0.989153   -1.709092
 H   -3.673726   -1.009178   -1.900315
 H   -5.207431    0.764164    0.064600
 H   -4.717435    1.271030   -1.542436
 H    3.881339    1.386005    0.575800
 H    2.544806    1.325940   -0.562922
 H    4.010609    0.201482   -2.224094
 H    5.291424    2.241480   -2.787913
 H    5.075123    2.846801   -1.143048
 H    3.675161    2.665774   -2.209561
 H    5.716520   -0.844197   -0.707453
 H    6.477687    0.232859   -1.874038
 H    6.240152    0.767498   -0.209942
 H   -1.310767    1.622588    3.394399
 H   -0.011313    2.414212    2.500872
 H   -3.429116    0.600019    1.884835
 H    0.855920    2.837779    0.089034
 H   -2.873413    1.508929   -2.989322
 H    1.016769    3.239480   -2.352671
 H   -0.804065    2.549633   -3.866659
