69 
1mmq_ligand_ani-2x.xyz
 C   -5.417682   -1.597011    0.937165
 O   -6.174246   -2.064054    1.789030
 N   -4.897550   -2.400748   -0.016666
 O   -5.087606   -3.762572    0.162030
 C   -5.024686   -0.134424    0.838249
 C   -3.638723    0.230341    1.422478
 C   -2.495321   -0.019544    0.438281
 O   -2.506056   -0.898169   -0.426215
 N   -1.418320    0.791510    0.573494
 C   -0.222181    0.580127   -0.206554
 C    0.964664    1.107951    0.610285
 O    0.806882    1.954596    1.478318
 N    2.176857    0.558594    0.326417
 C    3.286074    0.695537    1.261120
 C    4.645261    0.337748    0.649534
 C    5.397772    1.504139   -0.010323
 C    4.815726    1.994579   -1.337446
 C    5.096691    1.054188   -2.514661
 C    4.200577    1.298787   -3.735381
 N    2.831269    0.865149   -3.532204
 C   -3.304443   -0.462288    2.758470
 C   -4.307492   -0.248777    3.900776
 C   -3.849478   -1.039434    5.128416
 C   -4.491799    1.227098    4.261406
 C   -0.325677    1.235945   -1.606427
 C    0.817801    0.845125   -2.486873
 C    1.846191    1.624701   -2.932450
 C    1.162808   -0.505403   -2.854432
 C    2.433122   -0.459433   -3.472620
 C    0.526746   -1.747502   -2.684423
 C    3.090968   -1.617371   -3.898095
 C    1.170844   -2.889266   -3.119276
 C    2.442640   -2.826889   -3.715707
 H   -3.982502   -2.180603   -0.404820
 H   -5.663798   -3.770969    0.954588
 H   -5.075533    0.185685   -0.207788
 H   -5.793428    0.416856    1.387706
 H   -3.642693    1.317171    1.585725
 H   -1.338026    1.470766    1.318740
 H   -0.099936   -0.496785   -0.360406
 H    2.222191   -0.134755   -0.410037
 H    3.272943    1.731366    1.617222
 H    3.100157    0.073345    2.148229
 H    4.518276   -0.492841   -0.061171
 H    5.277739   -0.053720    1.455973
 H    6.445765    1.209551   -0.161404
 H    5.421664    2.339485    0.703185
 H    5.231260    2.984823   -1.569758
 H    3.735910    2.140644   -1.211864
 H    4.966584    0.007470   -2.208854
 H    6.146552    1.153305   -2.818191
 H    4.167842    2.363639   -3.994449
 H    4.589174    0.769891   -4.610561
 H   -3.200632   -1.540927    2.577261
 H   -2.315256   -0.111255    3.089621
 H   -5.275630   -0.657512    3.583518
 H   -4.572548   -0.951871    5.947504
 H   -2.883671   -0.666206    5.494037
 H   -3.731494   -2.104118    4.896168
 H   -3.536569    1.679201    4.562332
 H   -5.188153    1.334255    5.101072
 H   -4.893283    1.814090    3.427939
 H   -0.397022    2.323564   -1.491538
 H   -1.270175    0.888360   -2.038532
 H    1.971863    2.700821   -2.860390
 H   -0.455021   -1.799384   -2.213361
 H    4.080937   -1.575432   -4.347151
 H    0.690803   -3.855185   -2.988697
 H    2.924278   -3.746352   -4.038165
