69 
1mmq_ligand_xtb.xyz
 C   -5.450870   -1.711779    1.375770
 O   -6.258659   -2.003622    2.247654
 N   -4.802187   -2.654268    0.687177
 O   -4.974765   -3.987187    1.078340
 C   -5.139267   -0.292966    0.935177
 C   -3.735818    0.197892    1.331450
 C   -2.665758   -0.242517    0.338911
 O   -2.761670   -1.209376   -0.402846
 N   -1.574284    0.536474    0.345450
 C   -0.379755    0.233313   -0.406980
 C    0.806843    0.626889    0.480866
 O    0.674255    1.450641    1.367164
 N    1.960726   -0.013383    0.222224
 C    3.072549    0.015968    1.155819
 C    4.448106   -0.120795    0.496567
 C    5.139838    1.214603    0.209532
 C    4.555731    1.945184   -0.999068
 C    5.097214    1.395382   -2.319951
 C    4.204880    1.765976   -3.512534
 N    2.917333    1.142737   -3.381645
 C   -3.301450   -0.278339    2.728842
 C   -4.222965    0.167124    3.871143
 C   -3.728585   -0.455090    5.176076
 C   -4.266604    1.687368    4.004069
 C   -0.389487    0.993670   -1.752021
 C    0.878092    0.778428   -2.500490
 C    1.845829    1.707524   -2.744999
 C    1.375790   -0.461779   -3.006904
 C    2.664501   -0.193526   -3.533857
 C    0.861372   -1.758176   -3.066506
 C    3.440283   -1.202393   -4.094623
 C    1.638436   -2.749122   -3.621934
 C    2.913121   -2.475292   -4.126253
 H   -4.005376   -2.469928    0.079795
 H   -5.663266   -3.918227    1.772158
 H   -5.242740   -0.234732   -0.150142
 H   -5.889091    0.352695    1.392898
 H   -3.747939    1.292301    1.320343
 H   -1.461088    1.291688    1.010917
 H   -0.363496   -0.843629   -0.603571
 H    1.979169   -0.718120   -0.500760
 H    2.993047    0.955611    1.706792
 H    2.936916   -0.804976    1.872214
 H    4.348002   -0.698922   -0.424439
 H    5.085837   -0.694210    1.171377
 H    6.204194    1.036770    0.039431
 H    5.052385    1.846984    1.094624
 H    4.791693    3.009301   -0.934333
 H    3.470388    1.843436   -0.968449
 H    5.157009    0.306572   -2.268557
 H    6.104819    1.776570   -2.494058
 H    4.064230    2.848768   -3.557409
 H    4.670716    1.436830   -4.445839
 H   -3.252842   -1.369865    2.725892
 H   -2.292332    0.093475    2.929986
 H   -5.232354   -0.205108    3.679422
 H   -4.378532   -0.173632    6.000849
 H   -2.718795   -0.117109    5.402603
 H   -3.722074   -1.540012    5.103849
 H   -3.261376    2.088416    4.123121
 H   -4.850629    1.967720    4.877370
 H   -4.726084    2.152285    3.135273
 H   -0.524231    2.058714   -1.553218
 H   -1.247313    0.633236   -2.324713
 H    1.833951    2.759905   -2.531009
 H   -0.129243   -1.974857   -2.695305
 H    4.421121   -0.999386   -4.498353
 H    1.260138   -3.758965   -3.676378
 H    3.492609   -3.279561   -4.554602
