23 
1my2_ligand_ani-2x.xyz
 N   62.733900   69.568032   52.551624
 C   62.912553   68.136785   52.726990
 C   62.868424   67.758771   54.193701
 O   62.460777   66.710297   54.631593
 O   63.435022   68.697770   54.978316
 C   64.223192   67.561955   52.136445
 C   64.342566   67.867793   50.678093
 C   63.414338   67.496464   49.664335
 C   65.217857   68.654495   50.002336
 C   66.445315   69.401210   50.401207
 O   62.344230   66.707119   49.870247
 N   63.692481   68.012620   48.498782
 O   64.843086   68.756263   48.713509
 H   62.680450   69.775593   51.559200
 H   63.537387   70.069236   52.922063
 H   62.083129   67.616687   52.243001
 H   63.401780   68.342797   55.882076
 H   65.080654   67.977992   52.684259
 H   64.225225   66.479750   52.306200
 H   67.308700   69.061279   49.823150
 H   66.320970   70.473173   50.222421
 H   66.660048   69.251012   51.461334
 H   61.868914   66.634907   49.029119
