23 
1my2_ligand_dft.xyz
 N   63.088898   69.747819   52.664931
 C   62.956502   68.302552   52.746516
 C   62.834265   67.875810   54.196977
 O   62.061678   67.056591   54.626255
 O   63.757760   68.481962   54.973344
 C   64.109362   67.488856   52.093992
 C   64.250668   67.801953   50.641519
 C   63.459509   67.296871   49.568716
 C   65.091802   68.656365   49.996542
 C   66.189911   69.543356   50.464955
 O   62.466530   66.410696   49.722646
 N   63.794141   67.783424   48.403673
 O   64.841622   68.653373   48.676484
 H   63.146877   70.027428   51.689777
 H   63.944099   70.048283   53.124725
 H   62.018208   68.012959   52.266075
 H   63.622424   68.145002   55.873293
 H   65.043154   67.714281   52.622531
 H   63.911522   66.418622   52.223291
 H   67.136046   69.275621   49.984645
 H   65.975099   70.588978   50.222729
 H   66.309642   69.454707   51.547113
 H   62.091282   66.226492   48.849270
