37 
1n0s_ligand_xtb.xyz
 C    6.545016   75.033921   53.276692
 O    6.270673   74.300535   54.219101
 C    6.418064   74.627756   51.893496
 C    6.707486   75.463535   50.867694
 O    6.577677   74.989548   49.596112
 C    6.835025   75.780654   48.539459
 C    6.688467   75.217268   47.279815
 C    6.928817   75.980789   46.146631
 O    6.786097   75.395235   44.942564
 C    7.294892   77.326260   46.280267
 C    7.438651   77.885811   47.524547
 C    7.233909   77.126947   48.685694
 C    7.404993   77.641170   50.014068
 C    7.150460   76.820747   51.090546
 C    7.327086   77.224024   52.456718
 C    7.043989   76.398882   53.478103
 C    7.839571   79.040716   50.195975
 C    6.970151   79.958139   50.778535
 C    7.331942   81.286530   50.911595
 C    8.562776   81.723716   50.448168
 C    9.432258   80.825994   49.857322
 C    9.088384   79.483084   49.741739
 C   10.078856   78.562157   49.103608
 O   10.718956   78.869518   48.137703
 O   10.240738   77.361116   49.687894
 H    6.084108   73.622721   51.690317
 H    6.392636   74.186150   47.184543
 H    6.999144   76.017095   44.234788
 H    7.468277   77.923943   45.396835
 H    7.713079   78.925366   47.610214
 H    7.696054   78.224214   52.640258
 H    7.176718   76.712005   54.503043
 H    6.000795   79.620539   51.114459
 H    6.646582   81.982790   51.370407
 H    8.841216   82.761744   50.543278
 H   10.392682   81.144814   49.482232
 H    9.695773   77.247365   50.479281
