37 
1n1v_ligand_aiqm1.xyz
 C   -3.907370    0.354697    0.123335
 C   -2.530001   -0.157445   -0.077386
 C   -2.274309   -1.470723   -0.074391
 C   -0.881124   -2.026107   -0.204867
 C    0.148594   -0.882418   -0.133366
 C   -0.382356    0.344044   -0.870597
 C    0.503997    1.579085   -0.968185
 C    1.066575    2.186255    0.317024
 C    2.121785    1.375593    1.050897
 C    2.317383   -2.021419    0.021408
 C    3.677030   -2.206048   -0.604871
 N    1.432492   -1.286701   -0.691159
 O   -3.971597    1.694114    0.146318
 O   -4.868730   -0.361578    0.257560
 O   -0.706567   -2.975441    0.823447
 O   -1.580001    0.809868   -0.251912
 O    1.555617    1.281021   -1.883037
 O    1.665540    3.393656   -0.148101
 O    2.676528    2.263846    2.018985
 O    2.034682   -2.511028    1.111423
 H   -3.083368   -2.167940    0.096104
 H   -0.784807   -2.521243   -1.182370
 H    0.269009   -0.656859    0.929139
 H   -0.590261    0.039652   -1.905633
 H   -0.131513    2.359538   -1.390100
 H    0.249409    2.412063    1.007027
 H    1.694449    0.502011    1.540892
 H    2.885952    1.046603    0.343878
 H    3.950569   -3.255937   -0.540552
 H    3.708515   -1.876543   -1.642443
 H    4.408501   -1.641641   -0.026661
 H    1.765002   -0.781779   -1.500237
 H   -4.902638    1.902791    0.295217
 H    0.229478   -2.981688    1.077941
 H    2.040079    2.103262   -1.993236
 H    2.155138    3.765564    0.590115
 H    3.398351    1.816972    2.459255
