27 
1n2v_ligand_aiqm1.xyz
 N   15.510639   17.605948   20.423855
 C   16.708850   17.576856   19.868849
 C   17.040184   17.774485   18.423389
 C   15.828832   18.051346   17.543467
 C   16.216122   18.243888   16.084394
 C   15.007160   18.521611   15.199502
 N   17.690139   17.332458   20.792975
 C   17.073574   17.202042   22.004467
 C   17.657222   16.894742   23.293914
 N   16.723984   16.931888   24.305095
 N   15.337038   16.905542   24.059570
 C   14.763648   17.315571   22.847290
 O   13.578718   17.557542   22.799396
 C   15.731969   17.367304   21.752529
 O   18.833600   16.654683   23.497707
 H   17.758498   18.598839   18.346356
 H   17.567141   16.881407   18.067967
 H   15.119842   17.226902   17.634974
 H   15.309855   18.938143   17.911152
 H   16.930204   19.069837   16.006381
 H   16.738386   17.350128   15.728637
 H   15.301209   18.656726   14.158913
 H   14.295842   17.695715   15.245143
 H   14.488790   19.424962   15.524200
 H   18.679766   17.258351   20.631432
 H   17.000865   16.382779   25.105764
 H   14.800924   17.247306   24.843682
