27 
1n2v_ligand_ani-2x.xyz
 N   15.549875   17.621818   20.402358
 C   16.746150   17.568390   19.867511
 C   17.074396   17.762243   18.417334
 C   15.845321   18.046694   17.556475
 C   16.198184   18.240002   16.084667
 C   14.976846   18.525429   15.213927
 N   17.713005   17.307567   20.798471
 C   17.071556   17.193677   21.997560
 C   17.659600   16.918057   23.296851
 N   16.715682   16.965913   24.305367
 N   15.321505   16.910595   24.030627
 C   14.756204   17.320220   22.821380
 O   13.568792   17.561455   22.754156
 C   15.743777   17.382896   21.733650
 O   18.836185   16.687793   23.509684
 H   17.799757   18.583993   18.325344
 H   17.595117   16.865923   18.049392
 H   15.132870   17.221276   17.671545
 H   15.337658   18.937113   17.945822
 H   16.918245   19.065407   15.994688
 H   16.711853   17.339993   15.718597
 H   15.253372   18.660547   14.163137
 H   14.256115   17.701107   15.268988
 H   14.463521   19.435293   15.546564
 H   18.711498   17.205867   20.676704
 H   16.953678   16.414415   25.121414
 H   14.782240   17.223315   24.828789
