48 
1n46_ligand_xtb.xyz
 O   16.833411    4.989047    5.600766
 C   17.714369    4.203680    5.838800
 N   17.517961    3.105796    6.650554
 C   18.463258    2.159137    7.029891
 O   18.182683    1.233205    7.751870
 N   19.015220    4.305899    5.349383
 N   19.984474    3.459162    5.676361
 C   19.767632    2.459182    6.444750
 C   19.415200    5.382335    4.510759
 C   20.709040    5.867464    4.642935
 C   21.167684    6.897714    3.838838
 C   22.556521    7.432134    4.011198
 C   18.556225    5.927268    3.567815
 C   18.989007    6.960322    2.752744
 C   18.084695    7.573526    1.730336
 C   20.298239    7.433533    2.883060
 O   20.670670    8.495317    2.090190
 C   21.728485    8.338244    1.229961
 C   22.178396    7.101036    0.793183
 C   22.324448    9.497213    0.746132
 C   23.369289    9.450571   -0.159245
 C   24.012655   10.712669   -0.679406
 C   22.997232   11.561537   -1.446322
 C   24.637503   11.513993    0.464099
 C   23.825826    8.197560   -0.584980
 C   23.226067    7.041121   -0.108029
 O   24.862794    8.139842   -1.473865
 H   16.578960    3.001840    7.022275
 H   20.605055    1.814945    6.658799
 H   21.359936    5.434011    5.385947
 H   22.929716    7.198593    5.004770
 H   23.231960    6.991726    3.276913
 H   22.571684    8.510926    3.869923
 H   17.550467    5.556653    3.464636
 H   17.131723    7.054161    1.696591
 H   17.909301    8.620461    1.972310
 H   18.548589    7.540572    0.745305
 H   21.712345    6.193282    1.147397
 H   21.945690   10.444549    1.094826
 H   24.807870   10.418281   -1.369177
 H   22.559077   10.985980   -2.258403
 H   22.196795   11.895199   -0.790694
 H   23.484906   12.437841   -1.867319
 H   23.876038   11.850511    1.163304
 H   25.356880   10.903880    1.005553
 H   25.152185   12.387493    0.070387
 H   23.579319    6.076306   -0.448671
 H   25.055620    7.217583   -1.678552
