58 
1n9a_ligand_xtb.xyz
 C   48.527225   51.405804   -2.701316
 C   48.229774   50.028008   -2.096997
 N   48.493633   50.012247   -0.668843
 C   48.924398   51.269038   -0.066271
 C   50.083296   51.789002   -0.870275
 C   51.359513   52.123956   -0.232015
 C   52.549886   51.439105   -0.605196
 C   53.785539   51.883912   -0.065444
 C   53.797250   52.950128    0.857676
 C   52.629671   53.538701    1.256177
 C   51.408501   53.125578    0.708974
 C   54.976006   51.230592   -0.448442
 C   48.522274   48.895306    0.086287
 C   52.551710   50.308388   -1.448090
 C   54.944284   50.155365   -1.290324
 C   53.718840   49.680323   -1.780063
 C   51.044186   46.823669    0.808042
 N   51.286377   46.789710   -2.779919
 C   51.765515   46.686194   -1.573106
 N   50.832362   46.929966   -0.620908
 C   49.664576   47.207570   -1.291699
 C   49.978589   47.112152   -2.623740
 C   48.370903   47.558469   -0.631590
 C   51.816625   48.996119    1.800107
 C   52.139814   47.747704    1.280978
 C   53.474936   47.364659    1.212328
 C   54.474003   48.215793    1.639781
 C   54.140896   49.466815    2.157003
 C   52.804044   49.853354    2.240695
 C   55.156796   50.338902    2.609343
 N   55.980424   51.043645    2.982616
 C   49.865816   51.864928   -2.195990
 O   48.712215   48.937270    1.291753
 C   50.825223   52.329810   -3.114593
 N   51.576488   52.720778   -3.888344
 H   47.755373   52.120622   -2.399594
 H   48.517836   51.335675   -3.789116
 H   48.866721   49.290297   -2.594443
 H   47.180683   49.766030   -2.281489
 H   49.201656   51.066485    0.968593
 H   48.090950   51.983727   -0.075397
 H   54.745021   53.275921    1.259362
 H   52.638507   54.338897    1.981075
 H   50.497762   53.628790    1.001484
 H   55.911470   51.590567   -0.045718
 H   51.617323   49.922087   -1.827611
 H   55.859332   49.658223   -1.576290
 H   53.696233   48.815563   -2.426142
 H   51.308920   45.785370    1.042946
 H   50.114330   47.079061    1.318476
 H   52.780515   46.434942   -1.344198
 H   49.337466   47.224191   -3.476472
 H   47.582244   47.587714   -1.381999
 H   48.109272   46.811916    0.122877
 H   50.779595   49.282668    1.879465
 H   53.737729   46.385737    0.838049
 H   55.510484   47.917792    1.585745
 H   52.551286   50.819066    2.652202
