58 
1n9a_ligand_ani-2x.xyz
 C   48.216253   51.588693   -2.511371
 C   48.473989   50.116345   -2.181848
 N   48.876702   49.968411   -0.788879
 C   49.507593   51.095750   -0.095919
 C   50.160395   52.037711   -1.068414
 C   51.474596   52.596056   -0.759577
 C   52.614813   51.717472   -0.701132
 C   53.851141   52.227624   -0.240292
 C   53.949765   53.592414    0.132269
 C   52.866289   54.427453    0.019463
 C   51.630951   53.931773   -0.440766
 C   54.972829   51.355306   -0.177887
 C   48.645455   48.849251   -0.045497
 C   52.556103   50.358266   -1.118906
 C   54.889350   50.054701   -0.594600
 C   53.661741   49.547201   -1.074351
 C   50.937411   46.451413    0.847350
 N   51.426031   46.330301   -2.747713
 C   51.791561   46.164583   -1.499519
 N   50.825834   46.562709   -0.610865
 C   49.763675   47.015508   -1.373250
 C   50.165553   46.862127   -2.675436
 C   48.482020   47.523422   -0.794684
 C   51.721041   48.593438    1.929556
 C   52.028005   47.316573    1.453486
 C   53.349733   46.875199    1.542162
 C   54.350111   47.697628    2.041373
 C   54.039175   48.988096    2.475940
 C   52.717844   49.429798    2.411427
 C   55.081624   49.880790    2.931767
 N   55.912407   50.613448    3.273157
 C   49.430796   52.396129   -2.157729
 O   48.620468   48.881343    1.176967
 C   49.766830   53.528263   -2.969392
 N   50.028317   54.447389   -3.625247
 H   47.347036   51.937001   -1.935982
 H   47.968983   51.703974   -3.569461
 H   49.250847   49.713458   -2.848009
 H   47.557053   49.548017   -2.358743
 H   50.247174   50.715534    0.617727
 H   48.744427   51.617901    0.501548
 H   54.905918   53.964956    0.494340
 H   52.953201   55.477116    0.286051
 H   50.779652   54.604625   -0.510251
 H   55.909699   51.754460    0.205322
 H   51.603368   49.972888   -1.478932
 H   55.763637   49.406449   -0.539603
 H   53.586313   48.508530   -1.389445
 H   51.110472   45.397644    1.099096
 H   49.974514   46.740029    1.272197
 H   52.732913   45.744650   -1.169235
 H   49.605822   47.089156   -3.574723
 H   47.757173   47.619715   -1.606955
 H   48.057739   46.814818   -0.075444
 H   50.687894   48.932718    1.935475
 H   53.613785   45.868181    1.219528
 H   55.377959   47.349260    2.082998
 H   52.480319   50.440636    2.731256
