36 
1ndw_ligand_xtb.xyz
 C    1.360745    0.107365   -1.064864
 N    1.172197   -0.611093    0.073985
 C    2.228507   -0.335528    0.880255
 N    3.059979    0.503332    0.334364
 C    2.533190    0.800908   -0.895186
 C    3.186229    1.737096   -1.824973
 O    2.731733    2.033816   -2.913535
 N    4.343820    2.232065   -1.333368
 C    0.062847   -1.490900    0.346727
 C    0.541029   -2.952209    0.372919
 O    1.361262   -3.154029    1.499763
 C   -0.637999   -1.120139    1.659052
 C   -1.077023    0.348517    1.696031
 C   -1.961588    0.700676    0.531340
 C   -3.225642    0.134349    0.411539
 C   -4.030500    0.427420   -0.674247
 C   -3.582034    1.293259   -1.657872
 C   -2.329518    1.870569   -1.543176
 C   -1.526690    1.576904   -0.454292
 H    0.676511    0.087250   -1.887109
 H    2.355118   -0.780734    1.845656
 H    4.885145    2.884451   -1.872870
 H    4.646411    1.935079   -0.421507
 H   -0.643099   -1.381026   -0.484684
 H    1.093292   -3.161998   -0.554111
 H   -0.339221   -3.609818    0.411136
 H    1.726274   -4.043673    1.471665
 H   -1.508754   -1.769041    1.764192
 H    0.037038   -1.323621    2.490328
 H   -1.615612    0.520170    2.631216
 H   -0.196003    0.993104    1.694324
 H   -3.584492   -0.537159    1.179037
 H   -5.010907   -0.019768   -0.753128
 H   -4.209012    1.519922   -2.507412
 H   -1.971936    2.549666   -2.302705
 H   -0.550997    2.034517   -0.372488
