42 
1ndy_ligand_xtb.xyz
 C    2.263774   -0.023208   -1.082305
 N    1.924262   -0.674392    0.062241
 C    2.953593   -0.489882    0.927128
 N    3.906130    0.232711    0.413658
 C    3.493790    0.542557   -0.855830
 C    4.304166    1.366874   -1.767589
 O    3.953925    1.671670   -2.891889
 N    5.477301    1.748695   -1.215922
 C    0.713980   -1.427876    0.278841
 C    1.030724   -2.932972    0.292968
 O    1.791435   -3.234762    1.439027
 C    0.007885   -1.009830    1.573141
 C   -0.299451    0.493172    1.624861
 C   -1.130151    0.944099    0.453665
 C   -0.538181    1.668707   -0.550629
 C   -1.245249    2.053170   -1.697942
 C   -2.558170    1.707534   -1.838765
 C   -3.220415    0.988657   -0.821989
 C   -2.507545    0.607226    0.348173
 C   -4.583376    0.645522   -0.945062
 C   -3.216142   -0.077996    1.360067
 C   -5.230492   -0.034578    0.046548
 C   -4.539083   -0.389973    1.213387
 H    1.635495    0.000715   -1.948030
 H    2.971666   -0.912334    1.910622
 H    5.687735    1.453370   -0.277965
 H    6.121024    2.317041   -1.737750
 H    0.055246   -1.228718   -0.574443
 H    1.584886   -3.188308   -0.621393
 H    0.084447   -3.492689    0.295636
 H    2.064292   -4.156654    1.405763
 H   -0.917673   -1.583263    1.636426
 H    0.635435   -1.283810    2.421435
 H   -0.812011    0.712561    2.563499
 H    0.640601    1.048799    1.627987
 H    0.502014    1.950062   -0.466336
 H   -0.735417    2.614460   -2.466562
 H   -3.112215    1.984472   -2.724085
 H   -5.108079    0.939244   -1.843216
 H   -2.713107   -0.346962    2.275860
 H   -6.274371   -0.292818   -0.054738
 H   -5.062677   -0.910796    2.002107
