42 
1ndy_ligand_ani-2x.xyz
 C    2.399797   -0.011050   -1.024817
 N    2.065015   -0.797839    0.053497
 C    3.089248   -0.669082    0.946107
 N    4.029374    0.137690    0.517429
 C    3.605734    0.556619   -0.716604
 C    4.353762    1.514159   -1.565045
 O    3.915436    1.882427   -2.644229
 N    5.532701    1.924507   -1.038825
 C    0.813523   -1.533101    0.241602
 C    1.069289   -3.034167    0.306789
 O    1.715409   -3.342023    1.530045
 C    0.024232   -1.034970    1.459198
 C   -0.268127    0.478170    1.438471
 C   -1.154346    0.930896    0.301085
 C   -0.611420    1.598017   -0.772411
 C   -1.382469    1.950344   -1.903949
 C   -2.713885    1.643143   -1.944764
 C   -3.335712    0.992477   -0.844615
 C   -2.561476    0.650177    0.298918
 C   -4.723007    0.684700   -0.863406
 C   -3.232091    0.040563    1.399630
 C   -5.329939    0.085240    0.204917
 C   -4.574986   -0.235230    1.353736
 H    1.783692    0.077946   -1.909387
 H    3.090508   -1.199379    1.889895
 H    5.828301    1.595785   -0.131528
 H    6.089781    2.586645   -1.554837
 H    0.236975   -1.334763   -0.668012
 H    1.687834   -3.322156   -0.553057
 H    0.101780   -3.555299    0.233866
 H    2.003779   -4.261167    1.492672
 H   -0.912678   -1.603881    1.502273
 H    0.584780   -1.282271    2.366000
 H   -0.709246    0.769938    2.400032
 H    0.691617    1.005952    1.369831
 H    0.444030    1.860118   -0.758433
 H   -0.906999    2.462241   -2.737352
 H   -3.319150    1.900762   -2.810692
 H   -5.297241    0.943048   -1.750704
 H   -2.669250   -0.210068    2.294136
 H   -6.392677   -0.142091    0.178561
 H   -5.061897   -0.703525    2.204577
