66 
1ndz_ligand_aiqm1.xyz
 C    2.065358   -0.168158   -1.562607
 N    2.137926   -1.244552   -0.722165
 C    3.407599   -1.275362   -0.225624
 N    4.145765   -0.292309   -0.693339
 C    3.312797    0.407075   -1.536311
 C    3.748284    1.601404   -2.269708
 O    3.011330    2.217967   -3.026199
 N    5.018699    1.986660   -1.989730
 C    1.051272   -2.195596   -0.473321
 C    1.451131   -3.585823   -0.936906
 O    2.382124   -4.116156    0.004610
 C    0.615029   -2.126047    0.987051
 C   -0.471679   -3.138688    1.368499
 N   -1.553572   -3.219056    0.408554
 C   -1.888322   -4.330470   -0.343374
 C   -2.885502   -4.021140   -1.231055
 C   -3.197845   -2.640067   -1.028422
 C   -2.356508   -2.177705    0.006537
 C   -4.100430   -1.742787   -1.620602
 C   -4.146713   -0.430823   -1.191768
 C   -3.294005    0.012070   -0.155437
 C   -2.403520   -0.854518    0.462370
 N   -3.313941    1.345496    0.301700
 C   -3.467731    2.459234   -0.473875
 O   -3.887749    2.457609   -1.616916
 C   -3.035917    3.738024    0.229016
 C   -1.525204    3.964379    0.090137
 C    1.311722    0.103978    3.652707
 C    0.084739    0.722688    3.456569
 C   -0.032346    1.613887    2.387232
 C    1.065164    1.864560    1.549554
 C    2.297492    1.236581    1.730982
 C    2.403373    0.355580    2.793245
 N   -1.133806    2.336727    1.949986
 C   -0.704655    3.009707    0.901168
 N    0.612016    2.772711    0.611551
 C    1.374793    3.373693   -0.470424
 H    1.170722    0.094302   -2.098605
 H    3.738706   -2.032879    0.465167
 H    5.603836    1.346071   -1.481999
 H    5.427256    2.688640   -2.577693
 H    0.229218   -1.880231   -1.112045
 H    1.903955   -3.509996   -1.929670
 H    0.564315   -4.215963   -1.006661
 H    2.695967   -4.961960   -0.313901
 H    1.480359   -2.296611    1.628701
 H    0.272584   -1.110683    1.185636
 H   -0.872323   -2.875714    2.349685
 H   -0.032413   -4.134720    1.440683
 H   -1.377765   -5.266060   -0.167731
 H   -3.329015   -4.706750   -1.932994
 H   -4.759217   -2.073134   -2.414745
 H   -4.816849    0.275018   -1.657329
 H   -1.776889   -0.504586    1.273314
 H   -2.805038    1.510454    1.162813
 H   -3.562063    4.562062   -0.248264
 H   -3.304640    3.695851    1.284509
 H   -1.281090    4.981645    0.413436
 H   -1.234754    3.887377   -0.960394
 H    1.432770   -0.587029    4.476989
 H   -0.757652    0.526440    4.106334
 H    3.124477    1.411057    1.056193
 H    3.341945   -0.157350    2.962933
 H    1.048576    3.008845   -1.442812
 H    1.266515    4.459169   -0.442427
 H    2.424813    3.129720   -0.338543
