66 
1ndz_ligand_ani-2x.xyz
 C    2.171647   -0.399861   -1.561365
 N    2.277305   -1.435857   -0.658451
 C    3.532305   -1.350143   -0.129458
 N    4.219622   -0.348241   -0.629289
 C    3.378526    0.240533   -1.536463
 C    3.764806    1.417798   -2.356332
 O    2.956293    1.980288   -3.082343
 N    5.056458    1.797069   -2.220611
 C    1.230099   -2.408100   -0.322400
 C    1.748157   -3.833701   -0.489390
 O    2.494245   -4.205052    0.659602
 C    0.648504   -2.128421    1.064431
 C   -0.512539   -3.048904    1.458164
 N   -1.553313   -3.174103    0.455779
 C   -1.791726   -4.287708   -0.316947
 C   -2.722876   -4.009598   -1.278626
 C   -3.087580   -2.630213   -1.112239
 C   -2.337952   -2.144092   -0.014748
 C   -3.951821   -1.745201   -1.776981
 C   -4.042734   -0.431756   -1.363518
 C   -3.287753    0.025101   -0.266300
 C   -2.443553   -0.830242    0.435883
 N   -3.370403    1.352362    0.185529
 C   -3.545945    2.475070   -0.587553
 O   -3.928992    2.465429   -1.744707
 C   -3.187058    3.770141    0.130741
 C   -1.692458    4.100259    0.013426
 C    1.138252    0.226616    3.563267
 C   -0.069494    0.878563    3.386450
 C   -0.182222    1.774516    2.317942
 C    0.911913    1.981033    1.455633
 C    2.124949    1.313796    1.620226
 C    2.222331    0.444198    2.691268
 N   -1.252017    2.535640    1.892140
 C   -0.835251    3.170849    0.820312
 N    0.474048    2.896515    0.512208
 C    1.302575    3.522793   -0.497894
 H    1.274407   -0.191428   -2.128197
 H    3.891226   -2.048583    0.616616
 H    5.670176    1.285615   -1.604619
 H    5.396433    2.573208   -2.766067
 H    0.451110   -2.253743   -1.073522
 H    2.372885   -3.864989   -1.392741
 H    0.894152   -4.511219   -0.633326
 H    2.939659   -5.038515    0.466539
 H    1.431855   -2.236069    1.820125
 H    0.317494   -1.084036    1.085807
 H   -0.964353   -2.690234    2.389939
 H   -0.133789   -4.058444    1.643315
 H   -1.273230   -5.213223   -0.090463
 H   -3.111842   -4.691448   -2.023227
 H   -4.541488   -2.084910   -2.624843
 H   -4.686287    0.266381   -1.885137
 H   -1.872687   -0.466865    1.289144
 H   -2.869393    1.519678    1.055261
 H   -3.769829    4.557224   -0.351614
 H   -3.475447    3.718580    1.185125
 H   -1.517591    5.124286    0.367566
 H   -1.397473    4.073650   -1.043070
 H    1.244137   -0.474900    4.386778
 H   -0.908880    0.700150    4.050828
 H    2.949729    1.428419    0.923878
 H    3.155268   -0.087609    2.866006
 H    1.298413    2.960107   -1.439107
 H    0.966122    4.547655   -0.687945
 H    2.326357    3.567645   -0.116170
