66 
1ndz_ligand_dft.xyz
 C   -1.975668    0.419715   -1.544291
 N   -2.112884    1.472497   -0.682789
 C   -3.387138    1.419776   -0.192951
 N   -4.066983    0.418260   -0.696089
 C   -3.190257   -0.216307   -1.545529
 C   -3.569789   -1.403657   -2.338039
 O   -2.803946   -1.944885   -3.126293
 N   -4.824960   -1.859496   -2.073507
 C   -1.070957    2.439836   -0.333519
 C   -1.576280    3.870085   -0.495024
 O   -2.416688    4.192723    0.597928
 C   -0.522724    2.128510    1.061050
 C    0.658386    3.010268    1.479293
 N    1.702885    3.100679    0.477946
 C    1.991754    4.212778   -0.293940
 C    2.884929    3.893331   -1.273057
 C    3.179826    2.495798   -1.123323
 C    2.427308    2.038334   -0.018924
 C    3.993524    1.577489   -1.802233
 C    4.042859    0.258861   -1.389912
 C    3.279434   -0.172525   -0.282637
 C    2.468119    0.713723    0.416388
 N    3.293671   -1.505678    0.172324
 C    3.440902   -2.634573   -0.589182
 O    3.898797   -2.664412   -1.718669
 C    2.905838   -3.891450    0.095231
 C    1.379725   -4.004491   -0.066970
 C   -1.233081   -0.116371    3.633347
 C   -0.027118   -0.752020    3.378225
 C    0.027863   -1.638753    2.298411
 C   -1.113445   -1.860087    1.506565
 C   -2.326289   -1.216637    1.748993
 C   -2.363571   -0.344831    2.827680
 N    1.083397   -2.397083    1.825372
 C    0.601217   -3.050280    0.791695
 N   -0.719115   -2.782050    0.554810
 C   -1.532539   -3.322277   -0.517755
 H   -1.058165    0.218753   -2.076078
 H   -3.747516    2.150608    0.515493
 H   -5.446359   -1.281600   -1.525725
 H   -5.206613   -2.570200   -2.677752
 H   -0.273142    2.300279   -1.070721
 H   -2.107655    3.950836   -1.453090
 H   -0.706896    4.539952   -0.534732
 H   -2.821084    5.050227    0.426570
 H   -1.316777    2.244568    1.803247
 H   -0.237944    1.072634    1.075944
 H    1.079180    2.615496    2.411378
 H    0.313965    4.028172    1.683809
 H    1.538531    5.164956   -0.051682
 H    3.299014    4.573281   -2.003936
 H    4.587130    1.896610   -2.654148
 H    4.651242   -0.463878   -1.915887
 H    1.886380    0.372894    1.268092
 H    2.780022   -1.659098    1.038201
 H    3.377132   -4.744569   -0.395882
 H    3.163962   -3.909295    1.158595
 H    1.068997   -5.028391    0.180265
 H    1.116719   -3.850172   -1.120365
 H   -1.308570    0.574773    4.467594
 H    0.850091   -0.585179    3.995599
 H   -3.198411   -1.364632    1.121090
 H   -3.289568    0.177624    3.048095
 H   -1.341706   -2.815861   -1.467244
 H   -1.340251   -4.392061   -0.628191
 H   -2.586049   -3.189512   -0.266296
