67 
1nhz_ligand_aiqm1.xyz
 O   -1.587598   -6.213478   -1.699941
 C   -1.223834   -5.114181   -1.322168
 C   -1.392715   -3.877396   -2.178943
 C   -0.539085   -4.922104   -0.032395
 C   -0.157005   -3.709536    0.417711
 C    0.624020   -3.551732    1.694238
 C   -0.462110   -2.462479   -0.330678
 C   -1.581617   -2.617207   -1.337435
 C    0.192061   -1.307547   -0.076738
 C   -0.179060   -0.029408   -0.832654
 C   -1.431486    0.623143   -0.267968
 C   -1.972221    0.337086    0.986635
 C   -3.107872    0.991462    1.461193
 C   -3.770791    1.961308    0.691866
 N   -4.948842    2.566972    1.134448
 C   -5.210450    2.515972    2.559520
 C   -5.322332    3.811754    0.491182
 C   -3.226657    2.246752   -0.572575
 C   -2.093228    1.587928   -1.030907
 C    0.982789    0.973373   -1.014469
 C    1.880426    1.095979    0.207568
 C    1.174082    1.824239    1.365433
 C    3.233314    1.792082   -0.051944
 C    3.866377    1.322448   -1.303190
 C    4.425433    0.995580   -2.326066
 C    5.099429    0.597336   -3.564332
 O    3.086932    3.208535   -0.118314
 C    4.107494    1.333029    1.143241
 C    3.537265   -0.048055    1.564451
 C    2.378689   -0.302221    0.581681
 C    1.256015   -1.221229    1.025880
 C    1.778359   -2.593907    1.442330
 H   -2.225347   -4.041345   -2.862495
 H   -0.487293   -3.778579   -2.789949
 H   -0.330548   -5.823525    0.533525
 H   -0.021658   -3.146692    2.479178
 H    0.978378   -4.523553    2.036869
 H   -2.528752   -2.691587   -0.792831
 H   -1.673028   -1.749688   -1.984809
 H   -0.440662   -0.312546   -1.856811
 H   -1.506070   -0.401040    1.630667
 H   -3.470364    0.737148    2.446189
 H   -6.140341    3.045640    2.761279
 H   -4.407128    2.965493    3.159051
 H   -5.348665    1.485152    2.886634
 H   -4.546799    4.585191    0.571528
 H   -6.237724    4.180024    0.952267
 H   -5.537078    3.647953   -0.565094
 H   -3.683508    2.990147   -1.208481
 H   -1.708587    1.840553   -2.014465
 H    1.597105    0.621363   -1.847440
 H    0.594747    1.950142   -1.308128
 H    1.728591    1.744466    2.305141
 H    0.171227    1.441419    1.542257
 H    1.092669    2.882453    1.119298
 H    5.563287    1.465009   -4.033012
 H    4.386920    0.166680   -4.268058
 H    5.875732   -0.140057   -3.360303
 H    3.875220    3.550046   -0.544535
 H    5.160642    1.285785    0.861102
 H    4.003226    2.073194    1.936160
 H    4.290007   -0.834609    1.514414
 H    3.165813   -0.020439    2.592554
 H    2.809527   -0.735099   -0.334856
 H    0.771982   -0.774964    1.902704
 H    2.414188   -2.997664    0.647370
 H    2.398110   -2.500467    2.336519
