74 
1njt_ligand_dft.xyz
 C    7.203302    0.373865    0.396151
 O    7.317352    0.054698    1.569023
 C    8.371617    0.355406   -0.570998
 N    6.015142    0.767371   -0.150787
 C    4.766378    0.606106    0.556832
 C    3.753373    0.017933   -0.426594
 O    3.932819    0.044368   -1.637252
 C    4.229995    1.933780    1.155400
 C    5.204922    2.487380    2.194854
 C    3.938370    2.968016    0.066311
 N    2.640747   -0.502808    0.150696
 C    1.450465   -0.815820   -0.599313
 C    1.243675   -2.368670   -0.753691
 C   -0.106047   -2.509110   -1.452056
 C    2.338690   -2.917690   -1.678221
 C    1.286173   -3.064834    0.608306
 O   -0.318656   -2.055815   -2.560473
 O   -1.052638   -3.063823   -0.699837
 C    0.278367   -0.140662    0.132887
 O    0.333781    0.092104    1.332823
 N   -0.791596    0.179108   -0.643873
 C   -2.055009    0.576292   -0.058987
 C   -2.752221    1.577776   -0.988275
 C   -4.069929    2.056138   -0.390275
 O   -4.265517    1.969982    0.827150
 N   -5.014829    2.542519   -1.221459
 C   -6.321355    2.868777   -0.660848
 C   -4.812622    2.785046   -2.640700
 C   -2.972755   -0.647933    0.099771
 O   -3.183096   -1.387253   -0.865810
 N   -3.536343   -0.813170    1.306139
 C   -4.689860   -1.686716    1.515617
 C   -5.961658   -0.971828    1.027015
 O   -6.258210    0.189238    1.767140
 C   -4.772695   -2.081864    2.984075
 H    8.441799   -0.634908   -1.033834
 H    9.292683    0.536842   -0.015490
 H    8.268537    1.100339   -1.365414
 H    5.919362    0.806170   -1.158278
 H    4.939171   -0.098471    1.378548
 H    3.285318    1.695903    1.664370
 H    6.148850    2.777293    1.722098
 H    4.780011    3.374222    2.677178
 H    5.437602    1.745863    2.964204
 H    4.855541    3.214597   -0.480191
 H    3.553747    3.890938    0.512165
 H    3.199580    2.609463   -0.658366
 H    2.483076   -0.362785    1.141619
 H    1.561660   -0.394959   -1.602423
 H    2.220984   -3.999569   -1.800432
 H    3.323965   -2.726383   -1.244923
 H    2.294188   -2.445957   -2.662066
 H    1.084567   -4.133520    0.495435
 H    2.283628   -2.951486    1.043431
 H    0.553276   -2.653122    1.306550
 H   -1.921278   -2.815019   -1.083668
 H   -0.819861   -0.196589   -1.585802
 H   -1.838499    1.036814    0.904908
 H   -2.919784    1.090021   -1.954013
 H   -2.085310    2.431907   -1.155303
 H   -6.617154    2.114196    0.069920
 H   -6.308485    3.847221   -0.168849
 H   -7.054306    2.883008   -1.470048
 H   -5.204305    1.961822   -3.250086
 H   -5.331975    3.705667   -2.919984
 H   -3.756084    2.924987   -2.869119
 H   -3.414681   -0.057753    1.967270
 H   -4.530057   -2.569754    0.890647
 H   -5.846462   -0.752181   -0.045447
 H   -6.816616   -1.646837    1.139046
 H   -5.598543    0.868729    1.540247
 H   -3.838702   -2.541873    3.318714
 H   -5.586355   -2.797872    3.133528
 H   -4.984683   -1.204417    3.603197
