58 
1nl4_ligand_aiqm1.xyz
 C   49.708857   49.444283   -2.639948
 N   49.697799   48.287265   -1.762869
 C   50.789807   48.007336   -0.953992
 C   50.925269   46.772047   -0.293953
 C   51.992145   46.565195    0.568994
 C   52.950205   47.556247    0.787995
 C   52.855374   48.784599    0.103054
 C   51.779918   48.979511   -0.754556
 C   53.888711   49.847311    0.223944
 C   53.537923   51.209607    0.505546
 C   54.561596   52.195993    0.494654
 C   55.903853   51.815422    0.237576
 C   56.220564   50.504952    0.002541
 C   55.204435   49.521121   -0.010110
 C   54.006842   47.295040    1.720181
 C   54.231426   53.555012    0.742589
 N   54.858488   47.069002    2.476156
 C   52.210815   51.628517    0.814972
 C   52.940449   53.930349    1.008017
 C   51.923960   52.949649    1.053227
 N   49.729604   44.768991   -4.345064
 C   50.002336   45.735606   -3.403630
 C   48.841314   46.284588   -2.919987
 N   47.825885   45.627844   -3.586894
 C   48.420815   44.736265   -4.423902
 C   46.406166   45.850746   -3.438040
 C   48.557838   50.787929   -0.796384
 C   49.342713   50.754926   -1.953836
 C   49.799412   51.960435   -2.488940
 C   49.473379   53.175846   -1.881462
 C   48.680849   53.201157   -0.729614
 C   48.225959   52.000596   -0.192507
 C   49.967824   54.403095   -2.443955
 N   50.372392   55.392922   -2.893148
 C   48.596623   47.354475   -1.894102
 H   48.995103   49.255585   -3.443922
 H   50.691000   49.543008   -3.107195
 H   50.220149   45.975697   -0.468153
 H   52.091212   45.618112    1.082535
 H   51.700085   49.924100   -1.265958
 H   56.673065   52.578975    0.236005
 H   57.245519   50.211524   -0.179175
 H   55.473710   48.492756   -0.219314
 H   55.024831   54.292779    0.718919
 H   51.409436   50.902816    0.864265
 H   52.697070   54.968988    1.186978
 H   50.902646   53.245057    1.270459
 H   51.011739   45.986902   -3.118342
 H   47.842754   44.090192   -5.065218
 H   46.099654   45.698211   -2.403238
 H   46.134378   46.861012   -3.746244
 H   45.877879   45.138762   -4.067178
 H   48.218129   49.858777   -0.356482
 H   50.420592   51.962440   -3.375346
 H   48.436103   54.147566   -0.268688
 H   47.617591   52.010749    0.701876
 H   47.702958   47.920979   -2.174501
 H   48.389655   46.899735   -0.918436
