70 
1nl9_ligand_xtb.xyz
 O   -3.382912   -0.701033    4.546525
 C   -3.458863    0.255715    3.629309
 O   -2.826397    1.278570    3.673249
 C   -4.558580   -0.017644    2.592218
 O   -5.705350   -0.144763    2.957669
 N   -4.117993    0.014032    1.304321
 C   -5.022446    0.040031    0.215545
 C   -6.218011    0.746010    0.333188
 C   -7.101097    0.816522   -0.726835
 C   -6.796819    0.207332   -1.932569
 C   -5.603927   -0.476811   -2.065631
 C   -4.718098   -0.582025   -0.999144
 C   -3.472487   -1.379753   -1.227221
 O   -3.180072   -2.370478   -0.598343
 O   -2.770476   -0.898648   -2.231385
 C   -2.719226   -0.095375    1.087550
 C   -2.040575   -1.119516    1.701471
 C   -0.659755   -1.245090    1.542940
 C    0.056583   -0.373857    0.761379
 C   -0.621891    0.681158    0.095595
 C   -2.025120    0.842960    0.281323
 C   -2.677244    1.934485   -0.329604
 C   -1.994657    2.804603   -1.130682
 C   -0.623525    2.626329   -1.351412
 C    0.043276    1.599753   -0.745043
 C    1.534950   -0.598683    0.605793
 C    1.840924   -1.402841   -0.682080
 N    1.102134   -2.639637   -0.691488
 C    0.025942   -2.834314   -1.467979
 O   -0.372908   -1.958582   -2.229948
 C   -0.664331   -4.157288   -1.320454
 C    3.335909   -1.734881   -0.691516
 O    3.751811   -2.783860   -0.243827
 N    4.115771   -0.765420   -1.199018
 C    5.561101   -0.828384   -1.182060
 C    6.169045    0.123825   -0.149870
 C    5.913504    1.594636   -0.474561
 C    6.618761    2.524303    0.510798
 C    6.355623    3.991073    0.192631
 H   -2.774859   -0.450401    5.262359
 H   -6.453936    1.241790    1.260125
 H   -8.025018    1.362484   -0.611150
 H   -7.480881    0.269559   -2.764803
 H   -5.346163   -0.950590   -3.000460
 H   -1.900939   -1.380753   -2.349113
 H   -2.581654   -1.856113    2.275633
 H   -0.154570   -2.058041    2.043631
 H   -3.730851    2.084660   -0.154449
 H   -2.508048    3.633288   -1.594204
 H   -0.093937    3.312768   -1.995659
 H    1.103326    1.492517   -0.914356
 H    1.900135   -1.179264    1.455861
 H    2.081679    0.344324    0.583691
 H    1.537209   -0.835491   -1.567305
 H    1.509317   -3.387235   -0.147386
 H   -0.095383   -4.853460   -0.712981
 H   -0.847180   -4.584444   -2.303713
 H   -1.634062   -3.966413   -0.857816
 H    3.693929    0.079534   -1.548512
 H    5.821219   -1.859813   -0.935497
 H    5.939202   -0.591898   -2.181123
 H    7.245076   -0.054445   -0.115229
 H    5.759471   -0.112310    0.834209
 H    4.841005    1.802251   -0.444133
 H    6.267518    1.809227   -1.486084
 H    7.693455    2.333130    0.479351
 H    6.273314    2.304408    1.523324
 H    6.707349    4.234115   -0.807738
 H    5.291023    4.209558    0.243826
 H    6.870682    4.633804    0.902072
