15 
1nli_ligand_ani-2x.xyz
 N   14.699393   -5.165496   39.881997
 C   15.993621   -4.999886   40.318088
 N   16.410559   -3.766106   40.275734
 C   15.317074   -3.075207   39.780567
 C   15.106985   -1.716242   39.493291
 N   16.062670   -0.786187   39.722781
 N   13.924087   -1.329695   39.001646
 C   12.985511   -2.269344   38.810297
 N   13.047751   -3.575849   39.039903
 C   14.245338   -3.921133   39.526628
 H   14.173586   -6.023979   39.826832
 H   16.580584   -5.844680   40.658098
 H   15.914990    0.145632   39.370541
 H   16.995781   -1.090944   39.952822
 H   12.042070   -1.901883   38.409775
