90 
1nny_ligand_xtb.xyz
 C   -1.526870    1.282748   -1.432564
 C   -2.895727    1.483177   -1.765705
 C   -3.816971    1.755535   -0.788688
 C   -3.423575    1.801759    0.553034
 C   -2.108734    1.675571    0.919916
 C   -1.121365    1.473072   -0.083640
 N   -3.292086    1.425203   -3.126624
 C   -1.273261    0.242216    2.781719
 N   -2.385632   -0.682270    2.809682
 C   -2.632815   -1.586972    1.859590
 C   -0.616820    0.292836    4.175048
 N    0.482855   -0.465195    4.266509
 C    1.443622   -0.343294    5.339563
 C    2.838659   -0.111434    4.754431
 C    4.752018    0.256446    2.322959
 C    2.847836    1.095815    3.819474
 O    3.702955   -0.267462    1.532892
 O   -1.921588   -1.703138    0.855881
 C   -3.834332   -2.456687    2.078651
 C   -2.585039    2.159746   -4.033496
 O   -1.080238    0.955788    5.083247
 C   -1.726193    1.657374    2.370445
 O   -2.651701    2.065405   -5.239346
 C   -1.732495    3.279445   -3.414331
 O   -2.156624    4.073172   -2.615469
 C   -4.809038   -0.475104   -2.762280
 C   -4.402021    0.637526   -3.507979
 C   -5.158060    1.005624   -4.620484
 C   -6.264577    0.274147   -5.004632
 C   -6.663021   -0.830041   -4.270621
 C   -5.944430   -1.183353   -3.146229
 O   -4.791874   -1.087148   -0.480458
 O   -2.896206   -1.309542   -1.633322
 C   -4.161542   -0.959173   -1.505817
 C    3.979935   -1.153557    0.552042
 C    5.241017   -1.463785    0.100895
 C    5.440235   -2.319991   -1.000420
 C    4.316642   -2.875159   -1.665953
 C    3.035356   -2.588197   -1.164779
 C    2.852833   -1.771539   -0.075375
 C    1.496012   -1.627637    0.497111
 O    0.524158   -1.925976   -0.347767
 O    1.276182   -1.326232    1.652983
 C   -0.564407    0.877714   -2.383088
 C    0.759099    0.793666   -2.053620
 C    1.180931    1.132586   -0.761446
 C    0.261936    1.439869    0.202305
 C    4.210326    1.393317    3.195778
 O   -0.532551    3.360402   -3.971541
 C    6.730985   -2.632860   -1.474703
 C    6.896781   -3.448197   -2.559645
 C    5.783798   -3.990934   -3.221548
 C    4.519784   -3.711783   -2.783022
 H   -4.851760    1.916731   -1.050089
 H   -4.180713    1.957744    1.306763
 H   -0.559563   -0.147458    2.052783
 H   -3.025281   -0.582750    3.583944
 H    0.812442   -0.952415    3.441762
 H    1.128736    0.496032    5.965588
 H    1.440956   -1.253125    5.950644
 H    3.550403    0.031948    5.569421
 H    3.127583   -1.000984    4.193165
 H    5.172340   -0.545052    2.945427
 H    5.553799    0.656394    1.688437
 H    2.515653    1.979613    4.368836
 H    2.144629    0.912299    3.007816
 H   -4.193626   -2.411596    3.101723
 H   -4.614315   -2.113714    1.397576
 H   -3.591807   -3.483065    1.813473
 H   -0.911146    2.353659    2.573468
 H   -2.570712    1.950868    2.995176
 H   -4.876707    1.873944   -5.191574
 H   -6.824988    0.580689   -5.874619
 H   -7.530895   -1.400724   -4.562354
 H   -6.250268   -2.024045   -2.541764
 H   -2.519690   -1.588983   -0.757366
 H    6.118456   -1.052204    0.575029
 H    2.171445   -3.037323   -1.630635
 H   -0.356967   -1.840836    0.090446
 H   -0.879398    0.617234   -3.382346
 H    1.483201    0.476238   -2.788076
 H    2.233481    1.122343   -0.520750
 H    0.605788    1.671182    1.197857
 H    4.109036    2.287525    2.577640
 H    4.949734    1.601143    3.971509
 H   -0.054193    4.144252   -3.654004
 H    7.588331   -2.213540   -0.967669
 H    7.889210   -3.680887   -2.916907
 H    5.936973   -4.631316   -4.077314
 H    3.656371   -4.125520   -3.283181
