38 
1no6_ligand_ani-2x.xyz
 O   36.369096   29.178648   23.137698
 C   35.120152   28.866429   23.471004
 O   34.420868   29.553003   24.161666
 C   34.636248   27.514556   22.904036
 O   34.295223   26.613810   23.636642
 N   34.629390   27.391127   21.519569
 C   34.679724   26.057717   20.997367
 C   33.709934   25.670657   20.075572
 C   33.681615   24.374571   19.579264
 C   34.654312   23.462111   19.981530
 C   35.643125   23.858211   20.869903
 C   35.681360   25.157062   21.386323
 C   36.871378   25.588201   22.209885
 O   37.428731   24.644127   22.983253
 O   37.357868   26.697454   22.190914
 C   34.772624   28.482684   20.605404
 C   35.876632   28.515846   19.792177
 C   36.094941   29.604517   18.919495
 C   35.197391   30.635783   18.869759
 C   34.030708   30.619851   19.684711
 C   33.796613   29.531221   20.559271
 C   32.599803   29.520442   21.334861
 C   31.704917   30.555991   21.258920
 C   31.952898   31.650421   20.400667
 C   33.083307   31.680922   19.634181
 H   36.760793   28.456021   22.603291
 H   32.967429   26.400627   19.763952
 H   32.907914   24.080207   18.875692
 H   34.643690   22.444016   19.599449
 H   36.432178   23.156996   21.136968
 H   36.847785   23.872902   23.044150
 H   36.595362   27.703389   19.865475
 H   36.982930   29.614233   18.292701
 H   35.356098   31.481569   18.204072
 H   32.416819   28.677697   21.996819
 H   30.801147   30.539693   21.861126
 H   31.235428   32.466248   20.352303
 H   33.278268   32.516943   18.966131
