24 
1noi_ligand_xtb.xyz
 C   -0.224956    1.474988    0.652125
 C   -1.238133    1.223049   -0.399928
 C   -1.522642   -0.286552   -0.406231
 C   -0.209641   -1.071775   -0.564944
 C    0.754879   -0.829784    0.607043
 C    2.205904   -1.083286    0.183650
 N    0.630698    0.520576    1.078337
 N    1.372186    1.071100    2.041494
 N    0.983735    2.265718    2.186698
 N   -0.004464    2.563346    1.351948
 O   -2.443361    1.910077   -0.169328
 O   -2.352419   -0.651091   -1.479295
 O   -0.463693   -2.449647   -0.612636
 O    2.516699   -0.180453   -0.854036
 H   -0.820977    1.511116   -1.382121
 H   -2.003389   -0.555433    0.549460
 H    0.269663   -0.736794   -1.498312
 H    0.497799   -1.520721    1.419140
 H    2.857777   -0.922887    1.051430
 H    2.287579   -2.123566   -0.154454
 H   -2.236177    2.776320    0.202317
 H   -3.103406   -0.045254   -1.484521
 H   -1.197602   -2.578717   -1.228063
 H    3.444241   -0.280229   -1.089670
