24 
1noj_ligand_ani-2x.xyz
 C   -0.172675    1.500337    0.606417
 C   -1.260579    1.214766   -0.373507
 C   -1.502679   -0.289496   -0.413942
 C   -0.204021   -1.057873   -0.628451
 C    0.750251   -0.854232    0.549680
 C    2.189388   -1.252734    0.211448
 N    0.721679    0.557635    0.938988
 N    1.609098    1.107598    1.782242
 N    1.251421    2.336598    1.942771
 N    0.140345    2.615643    1.223861
 O   -2.479417    1.834096   -0.043011
 O   -2.374527   -0.623445   -1.475455
 O   -0.452860   -2.442680   -0.720744
 O    2.736976   -0.412898   -0.775909
 H   -0.923460    1.527661   -1.377767
 H   -1.937242   -0.594803    0.551367
 H    0.277682   -0.680376   -1.547444
 H    0.396083   -1.459837    1.391724
 H    2.788054   -1.242339    1.131373
 H    2.192912   -2.269413   -0.191508
 H   -2.276429    2.726959    0.270664
 H   -3.197624   -0.141568   -1.317540
 H   -1.155413   -2.546504   -1.378134
 H    2.883336    0.447005   -0.357022
