24 
1nok_ligand_aiqm1.xyz
 C   -0.170702    1.505594    0.592120
 C   -1.315730    1.223512   -0.333580
 C   -1.512298   -0.283713   -0.410641
 C   -0.192051   -1.007542   -0.632639
 C    0.740336   -0.843728    0.559227
 C    2.166109   -1.285175    0.251755
 N    0.722312    0.567246    0.944130
 N    1.655624    1.142326    1.714965
 N    1.315714    2.385696    1.833714
 N    0.174516    2.647742    1.141670
 O   -2.531222    1.779689    0.115131
 O   -2.340610   -0.618245   -1.508479
 O   -0.404728   -2.395225   -0.766646
 O    2.762777   -0.474857   -0.745222
 H   -1.050332    1.605496   -1.325622
 H   -1.958190   -0.625481    0.529143
 H    0.290672   -0.593703   -1.526146
 H    0.365068   -1.447619    1.386953
 H    2.751914   -1.280128    1.171440
 H    2.122157   -2.298017   -0.142384
 H   -2.402066    2.717543    0.279482
 H   -3.203159   -0.224745   -1.359899
 H   -1.067966   -2.520447   -1.450889
 H    3.082154    0.323881   -0.317482
