81 
1npv_ligand_dft.xyz
 O    3.698097    1.483338    0.076811
 C    2.489675    1.194424   -0.434705
 O    2.334594    0.707706   -1.550181
 N    1.509688    1.478785    0.447080
 C    0.076904    1.406320    0.151823
 C   -0.398808    0.004327   -0.284901
 O   -0.225021   -0.249910   -1.666612
 C    0.246900   -1.095067    0.571201
 C   -0.548167   -2.413060    0.629837
 C    0.261643   -3.547567    1.288540
 C    1.593603   -3.803273    0.627079
 C    2.770482   -3.270849    1.160281
 C    3.994269   -3.449397    0.520574
 C    4.055210   -4.169952   -0.669184
 C    2.891567   -4.714469   -1.206166
 C    1.670983   -4.531579   -0.563042
 C   -1.830562   -2.149602    1.438645
 O   -1.842074   -1.901479    2.636446
 N   -1.070745   -2.791203   -0.687416
 C   -2.411662   -2.515403   -0.707138
 C   -2.939597   -2.199822    0.507261
 C   -0.379266    2.494554   -0.834493
 C    0.034921    3.869433   -0.376668
 C   -0.645990    4.513812    0.659759
 C   -0.226168    5.755574    1.126096
 C    0.887141    6.373571    0.561117
 C    1.573730    5.741642   -0.471446
 C    1.149484    4.498885   -0.933821
 C    4.822987    1.094162   -0.733889
 C    4.984721   -0.437330   -0.772379
 O    6.074973   -0.766919    0.079010
 C    6.354058    0.350259    0.903007
 C    6.072503    1.554497    0.007131
 C   -5.449013   -2.260982    0.031544
 C   -4.309753   -1.703254    0.881254
 C   -4.283866   -0.183883    0.788176
 C   -4.687851    0.438838   -0.398847
 C   -5.240302   -0.348970   -1.544426
 N   -5.420398   -1.686688   -1.305846
 C   -3.756460    0.594957    1.819363
 C   -3.636794    1.972669    1.664982
 C   -4.038767    2.589366    0.479701
 C   -4.562837    1.819923   -0.550556
 O   -5.491733    0.150398   -2.629871
 H    1.796400    1.987835    1.268959
 H   -0.407093    1.592624    1.117018
 H   -1.483236    0.017513   -0.133275
 H    0.704232   -0.029261   -1.869626
 H    0.373807   -0.757318    1.606674
 H    1.245823   -1.290831    0.167063
 H    0.397699   -3.273599    2.340439
 H   -0.355191   -4.452856    1.266529
 H    2.723740   -2.702610    2.086650
 H    4.895071   -3.002797    0.931345
 H    5.007556   -4.306089   -1.172908
 H    2.933408   -5.282028   -2.131518
 H    0.762567   -4.951012   -0.987378
 H   -0.549060   -2.443569   -1.485672
 H   -2.937825   -2.550211   -1.654443
 H    0.038079    2.276122   -1.820699
 H   -1.469046    2.421115   -0.925644
 H   -1.515633    4.032684    1.102046
 H   -0.769400    6.243515    1.930431
 H    1.215763    7.343128    0.923551
 H    2.441534    6.216932   -0.919618
 H    1.687413    4.007105   -1.741091
 H    4.700170    1.531072   -1.725753
 H    5.213841   -0.798110   -1.779085
 H    4.068216   -0.933437   -0.435386
 H    5.699104    0.362723    1.788075
 H    7.392277    0.273428    1.233864
 H    5.911026    2.492091    0.542984
 H    6.889722    1.686861   -0.708611
 H   -5.347006   -3.346032   -0.058743
 H   -6.408127   -2.050743    0.526604
 H   -4.489699   -1.986993    1.924326
 H   -5.924030   -2.161782   -2.042399
 H   -3.416587    0.107507    2.728084
 H   -3.232217    2.569452    2.478383
 H   -3.941739    3.664420    0.360157
 H   -4.881581    2.265294   -1.487134
