81 
1npv_ligand_ani-2x.xyz
 O    3.635479    1.400222    0.187179
 C    2.427423    1.273446   -0.388125
 O    2.268804    0.974085   -1.568309
 N    1.438805    1.476620    0.509490
 C    0.019568    1.369655    0.189428
 C   -0.411556   -0.046671   -0.250448
 O   -0.170115   -0.308233   -1.622406
 C    0.241861   -1.125529    0.622621
 C   -0.509183   -2.470098    0.656380
 C    0.363870   -3.567431    1.295966
 C    1.692338   -3.793822    0.606672
 C    2.883414   -3.301220    1.148283
 C    4.100577   -3.481452    0.496896
 C    4.140658   -4.170975   -0.713832
 C    2.964276   -4.671646   -1.262440
 C    1.750399   -4.481121   -0.610091
 C   -1.804944   -2.271847    1.480597
 O   -1.823628   -2.115542    2.683769
 N   -1.050725   -2.888531   -0.653067
 C   -2.418023   -2.614567   -0.658190
 C   -2.920256   -2.252091    0.540530
 C   -0.428815    2.422854   -0.833692
 C   -0.046086    3.825879   -0.427886
 C   -0.728595    4.483929    0.599410
 C   -0.349210    5.763245    0.995078
 C    0.719929    6.399537    0.371162
 C    1.408274    5.752138   -0.649199
 C    1.026799    4.472722   -1.043969
 C    4.767148    1.061805   -0.650816
 C    4.930188   -0.458928   -0.785114
 O    5.849353   -0.879026    0.216107
 C    6.264354    0.241430    0.992289
 C    6.025269    1.464747    0.107684
 C   -5.409112   -2.148109    0.047891
 C   -4.243399   -1.617425    0.888151
 C   -4.177317   -0.100291    0.760439
 C   -4.644163    0.541213   -0.384984
 C   -5.271401   -0.227615   -1.506176
 N   -5.393236   -1.577345   -1.289132
 C   -3.561540    0.665092    1.755632
 C   -3.445669    2.042471    1.619801
 C   -3.940217    2.676944    0.476406
 C   -4.534262    1.926284   -0.522570
 O   -5.627036    0.294534   -2.549719
 H    1.704051    1.933207    1.368698
 H   -0.503546    1.561419    1.138724
 H   -1.506684   -0.091565   -0.127104
 H    0.732908    0.011410   -1.810661
 H    0.327321   -0.775809    1.657603
 H    1.258627   -1.290476    0.244547
 H    0.520109   -3.300095    2.346598
 H   -0.227057   -4.488851    1.282058
 H    2.857910   -2.761488    2.093459
 H    5.006763   -3.050649    0.907583
 H    5.089206   -4.309040   -1.227391
 H    2.993104   -5.212458   -2.205229
 H    0.828528   -4.860458   -1.045180
 H   -0.562974   -2.437335   -1.429142
 H   -2.966302   -2.733224   -1.582658
 H    0.013658    2.173691   -1.800616
 H   -1.518674    2.344979   -0.939256
 H   -1.562248    3.989473    1.096310
 H   -0.888403    6.264583    1.794353
 H    1.015484    7.399040    0.681308
 H    2.243539    6.245191   -1.141157
 H    1.566855    3.963946   -1.841780
 H    4.641880    1.559409   -1.615918
 H    5.337343   -0.707542   -1.774502
 H    3.974734   -0.980424   -0.668692
 H    5.668537    0.301125    1.913100
 H    7.315123    0.099515    1.265258
 H    5.885885    2.389787    0.671182
 H    6.854654    1.600976   -0.595824
 H   -5.340563   -3.236373   -0.037542
 H   -6.352825   -1.915870    0.567100
 H   -4.437339   -1.857748    1.940117
 H   -5.941017   -2.043281   -2.001757
 H   -3.156906    0.169529    2.632952
 H   -2.985818    2.621761    2.416245
 H   -3.858031    3.756776    0.361925
 H   -4.918123    2.380156   -1.429922
