85 
1npw_ligand_ani-2x.xyz
 O   -3.214495   -1.014406    1.758277
 C   -3.055849   -0.319979    0.595457
 O   -3.323938   -0.760076   -0.502508
 N   -2.551839    0.917671    0.871687
 C   -1.866985    1.688372   -0.151563
 C   -0.373183    1.317169   -0.248566
 O    0.177879    1.436467    1.055816
 C   -0.144165   -0.090091   -0.825968
 C    1.233672   -0.361421   -1.482727
 C    1.561565    0.626255   -2.623367
 C    0.437664    0.771773   -3.632174
 C    0.156868   -0.275913   -4.515592
 C   -0.914123   -0.204914   -5.400834
 C   -1.732008    0.918490   -5.419980
 C   -1.455000    1.976098   -4.557981
 C   -0.376901    1.908847   -3.680658
 C    2.347323   -0.389633   -0.398993
 O    2.787710    0.622977    0.115959
 C    3.306934   -2.343625    1.128594
 C    2.343061   -2.644478    2.303086
 O    1.458871   -1.507812    2.441009
 C    3.253521   -2.723857    3.535942
 C    4.382546   -1.776894    3.181141
 C    5.323606   -1.189033    4.012970
 C    6.287181   -0.353435    3.447702
 C    6.304021   -0.116401    2.074083
 C    5.359480   -0.708355    1.239348
 C    4.402834   -1.537438    1.807401
 N    1.301588   -1.754746   -1.951126
 C    1.989553   -2.517563   -1.028734
 C    2.651357   -1.787280   -0.098355
 C   -2.073771    3.183476    0.149629
 C   -1.599081    4.125606   -0.934120
 C   -0.326082    4.702252   -0.883685
 C    0.111933    5.568441   -1.882284
 C   -0.713759    5.858449   -2.963201
 C   -1.978513    5.278135   -3.035618
 C   -2.415220    4.423001   -2.029014
 C   -3.588556   -2.392956    1.571975
 C   -5.071702   -2.561232    1.210388
 O   -5.547996   -3.674194    1.953724
 C   -4.469708   -4.283658    2.654335
 C   -3.461425   -3.161922    2.875977
 C    0.260849   -1.787550    3.018385
 N   -0.495743   -0.663375    3.136146
 O   -0.073065   -2.896458    3.391453
 H   -2.210031    1.016720    1.817670
 H   -2.353352    1.445297   -1.102815
 H    0.110649    2.043100   -0.916762
 H    1.146421    1.385126    0.961425
 H   -0.911319   -0.285347   -1.585367
 H   -0.271271   -0.839658   -0.033884
 H    2.460246    0.241303   -3.117255
 H    1.823033    1.599776   -2.196340
 H    0.791246   -1.158261   -4.504804
 H   -1.109740   -1.034926   -6.075275
 H   -2.572412    0.972267   -6.106397
 H   -2.076675    2.868162   -4.554269
 H   -0.177085    2.769493   -3.039153
 H    3.743842   -3.315371    0.849337
 H    1.734881   -3.533935    2.134516
 H    2.730122   -2.458692    4.458515
 H    3.629305   -3.749805    3.651169
 H    5.319419   -1.373067    5.085756
 H    7.032092    0.115874    4.085670
 H    7.061433    0.537502    1.649443
 H    5.362946   -0.513328    0.170438
 H    0.443422   -2.143124   -2.324177
 H    2.001573   -3.593571   -1.142770
 H   -3.148367    3.316509    0.320758
 H   -1.564357    3.410941    1.094013
 H    0.333344    4.456771   -0.051356
 H    1.103629    6.007955   -1.819823
 H   -0.375066    6.526597   -3.749152
 H   -2.624565    5.491812   -3.884583
 H   -3.403439    3.971792   -2.099049
 H   -2.959079   -2.821868    0.785433
 H   -5.192273   -2.728769    0.133694
 H   -5.640383   -1.666246    1.487882
 H   -4.030093   -5.096690    2.053935
 H   -4.873353   -4.712459    3.575607
 H   -2.437880   -3.499012    3.079622
 H   -3.793441   -2.516751    3.697287
 H   -1.473309   -0.819514    3.331616
 H   -0.247321    0.158617    2.595909
