85 
1npw_ligand_xtb.xyz
 O   -3.425620   -1.032990    1.665901
 C   -3.256382   -0.251351    0.562975
 O   -3.535470   -0.596717   -0.557349
 N   -2.753361    0.950316    0.921858
 C   -2.054585    1.783183   -0.033388
 C   -0.556059    1.401155   -0.051610
 O   -0.092445    1.464338    1.277228
 C   -0.385595    0.009204   -0.683022
 C    1.037731   -0.378250   -1.110208
 C    1.649780    0.570094   -2.164495
 C    0.778973    0.718540   -3.379891
 C    0.769308   -0.273408   -4.354881
 C   -0.050597   -0.167677   -5.463730
 C   -0.872384    0.936247   -5.616934
 C   -0.857493    1.936998   -4.661428
 C   -0.036985    1.829582   -3.552306
 C    2.009423   -0.488415    0.084451
 O    2.350417    0.468297    0.766273
 C    3.269428   -2.458682    1.219617
 C    2.537115   -2.673571    2.579163
 O    1.511023   -1.706898    2.773543
 C    3.605928   -2.441835    3.657847
 C    4.631910   -1.587863    2.973439
 C    5.663854   -0.863166    3.534465
 C    6.502369   -0.138825    2.699113
 C    6.310163   -0.145207    1.327924
 C    5.275939   -0.877200    0.763355
 C    4.441022   -1.592748    1.596284
 N    1.012658   -1.738527   -1.612984
 C    1.725661   -2.546504   -0.810340
 C    2.388340   -1.868766    0.169899
 C   -2.239686    3.263397    0.327492
 C   -1.758588    4.139837   -0.793766
 C   -0.520817    4.767283   -0.732250
 C   -0.064481    5.532500   -1.792294
 C   -0.843686    5.683450   -2.926315
 C   -2.082865    5.068361   -2.993355
 C   -2.534307    4.299039   -1.936167
 C   -3.910886   -2.353163    1.439494
 C   -5.452216   -2.447067    1.501856
 O   -5.775797   -3.362075    2.527378
 C   -4.653650   -4.197123    2.728337
 C   -3.446259   -3.276957    2.568339
 C    0.251794   -2.055752    2.453822
 N   -0.604091   -1.059761    2.765279
 O   -0.076272   -3.126645    1.994583
 H   -2.436716    1.048485    1.876121
 H   -2.491007    1.582220   -1.016008
 H   -0.031463    2.144031   -0.665448
 H    0.871587    1.294086    1.258861
 H   -1.027985   -0.046137   -1.565181
 H   -0.728715   -0.743178    0.032615
 H    2.618044    0.152456   -2.451980
 H    1.828740    1.537508   -1.694106
 H    1.419989   -1.130056   -4.248367
 H   -0.045797   -0.946871   -6.211917
 H   -1.514351    1.018372   -6.481079
 H   -1.483833    2.808962   -4.774204
 H   -0.029637    2.627668   -2.825155
 H    3.628722   -3.433933    0.868988
 H    2.076680   -3.666536    2.625264
 H    3.168905   -1.951544    4.527341
 H    4.042456   -3.391719    3.974848
 H    5.813359   -0.854202    4.604267
 H    7.310431    0.438888    3.123524
 H    6.969213    0.427496    0.692005
 H    5.122859   -0.880129   -0.306152
 H    0.273902   -2.056765   -2.216856
 H    1.755657   -3.606738   -0.994852
 H   -3.300592    3.440181    0.512180
 H   -1.681354    3.469127    1.241526
 H    0.089492    4.655370    0.152608
 H    0.901694    6.011832   -1.732296
 H   -0.488265    6.280198   -3.753148
 H   -2.700126    5.191538   -3.871566
 H   -3.499946    3.817647   -1.993123
 H   -3.548346   -2.681605    0.459748
 H   -5.855820   -2.788670    0.540563
 H   -5.898499   -1.481684    1.752254
 H   -4.632277   -4.997925    1.974199
 H   -4.743205   -4.637590    3.720852
 H   -2.518877   -3.794339    2.336778
 H   -3.312972   -2.679818    3.471247
 H   -1.571625   -1.157731    2.496626
 H   -0.232874   -0.133570    2.905719
