57 
1nq7_ligand_ani-2x.xyz
 C   29.546555   25.462695    9.648480
 C   28.148281   25.288438   10.182450
 C   27.054837   26.156372    9.733177
 C   27.123336   27.167170    8.849513
 C   25.959642   27.958617    8.471779
 C   25.969802   28.981924    7.594154
 C   27.248537   29.398093    6.908068
 C   24.719629   29.728554    7.290399
 C   23.476814   29.080623    7.251027
 C   22.304722   29.781404    6.975213
 C   22.396485   31.156134    6.729000
 C   23.615144   31.836397    6.750305
 C   24.765797   31.101539    7.036925
 C   23.746079   33.340331    6.475398
 C   22.398975   33.983728    6.134411
 C   24.697438   33.566257    5.287923
 C   24.312780   34.045587    7.720149
 C   20.915126   29.127173    6.938891
 C   20.284000   29.336304    5.552555
 C   20.018552   29.773341    8.008477
 C   20.973781   27.621117    7.213332
 C   27.835230   24.337040   11.089079
 C   28.790568   23.364133   11.668073
 O   29.967160   23.294283   11.407742
 O   28.261250   22.493450   12.563088
 H   30.247065   25.670787   10.461820
 H   29.892881   24.544135    9.167086
 H   29.604730   26.275554    8.924955
 H   26.089215   25.931097   10.183612
 H   28.075679   27.420332    8.384158
 H   25.022067   27.700247    8.965844
 H   27.968153   29.821491    7.621724
 H   27.733628   28.535374    6.433077
 H   27.058602   30.139373    6.128147
 H   23.440584   28.004643    7.399086
 H   21.482334   31.703748    6.515411
 H   25.728786   31.607023    7.090437
 H   21.953466   33.531566    5.240814
 H   21.686969   33.890038    6.962403
 H   22.536760   35.051872    5.934215
 H   25.692099   33.150177    5.476058
 H   24.304375   33.095276    4.379425
 H   24.813807   34.638678    5.093458
 H   23.641887   33.919615    8.577789
 H   25.294376   33.652981    8.003807
 H   24.424832   35.119138    7.528946
 H   20.170964   30.397233    5.308404
 H   20.902349   28.877764    4.772383
 H   19.289249   28.877431    5.515454
 H   20.440853   29.625175    9.008999
 H   19.903201   30.850414    7.850982
 H   19.019020   29.323932    7.988335
 H   21.555277   27.094180    6.447780
 H   21.415433   27.409468    8.193927
 H   19.961399   27.202615    7.205952
 H   26.800270   24.280386   11.420995
 H   27.316968   22.664457   12.672511
