57 
1nq7_ligand_aiqm1.xyz
 C   29.476685   25.371784    9.613821
 C   28.091046   25.260491   10.175093
 C   27.019327   26.146508    9.707627
 C   27.123308   27.135413    8.798168
 C   25.983521   27.955101    8.408028
 C   26.009938   29.012084    7.568485
 C   27.281767   29.493403    6.917921
 C   24.759767   29.758022    7.275744
 C   23.523588   29.099454    7.256291
 C   22.344310   29.789534    6.979083
 C   22.422993   31.165810    6.732830
 C   23.635783   31.853029    6.744050
 C   24.799658   31.125734    7.009910
 C   23.727554   33.361078    6.478022
 C   22.357457   33.988991    6.200769
 C   24.620194   33.617709    5.252866
 C   24.329999   34.065386    7.704907
 C   20.976862   29.094814    6.941529
 C   20.330375   29.298875    5.561880
 C   20.068253   29.696786    8.026049
 C   21.078266   27.586678    7.192534
 C   27.762614   24.351858   11.124772
 C   28.697494   23.380102   11.717053
 O   29.864245   23.260384   11.445044
 O   28.155942   22.558035   12.655683
 H   30.186866   25.599501   10.405677
 H   29.791950   24.418083    9.197311
 H   29.552901   26.134580    8.842627
 H   26.049596   25.967871   10.165353
 H   28.082229   27.347314    8.331204
 H   25.037168   27.677029    8.862756
 H   27.796760   30.223420    7.546880
 H   27.975758   28.675361    6.728772
 H   27.065258   29.974660    5.964794
 H   23.505188   28.035460    7.443409
 H   21.506349   31.703703    6.526098
 H   25.756926   31.636503    7.025947
 H   21.886947   33.552290    5.317187
 H   21.681038   33.868603    7.049747
 H   22.482867   35.058358    6.020479
 H   25.620648   33.200105    5.383817
 H   24.181528   33.170892    4.358365
 H   24.724463   34.693288    5.084375
 H   23.684837   33.936585    8.576296
 H   25.317548   33.672508    7.954989
 H   24.433720   35.136451    7.508740
 H   20.224072   30.356483    5.313584
 H   20.933136   28.828120    4.782653
 H   19.334091   28.847709    5.545368
 H   20.483403   29.512494    9.019151
 H   19.951688   30.775570    7.903784
 H   19.074446   29.242417    7.978597
 H   21.691290   27.094258    6.434554
 H   21.501246   27.369099    8.175974
 H   20.079271   27.148566    7.153289
 H   26.737265   24.332053   11.482365
 H   27.226402   22.770500   12.765301
