27 
1nu3_ligand_ani-2x.xyz
 C   15.749834   20.817465    5.980169
 C   16.258670   22.022442    6.768322
 C   15.710137   22.055427    8.194631
 C   16.069754   23.323083    8.992345
 C   17.575562   23.527927    9.174316
 C   17.946182   24.799009    9.937641
 C   19.454251   24.963905   10.102211
 C   15.254098   23.290754   10.283370
 N   15.856822   22.767054   11.392940
 O   14.090367   23.652308   10.301618
 H   16.041074   19.879616    6.467840
 H   14.656031   20.827035    5.907337
 H   16.153593   20.804573    4.962492
 H   15.973898   22.949267    6.251719
 H   17.355318   22.001929    6.786157
 H   16.062788   21.170720    8.744597
 H   14.615284   21.983447    8.164014
 H   15.663880   24.186639    8.447896
 H   18.044461   23.573016    8.183409
 H   18.015989   22.646074    9.664875
 H   17.466859   24.793230   10.923168
 H   17.535151   25.664534    9.401894
 H   19.881837   24.123652   10.661436
 H   19.956200   25.007107    9.128637
 H   19.695804   25.883815   10.644266
 H   15.339971   22.819764   12.257136
 H   16.849388   22.603811   11.442064
