27 
1nu3_ligand_aiqm1.xyz
 C   15.774896   20.768350    6.068627
 C   16.229193   22.032862    6.789538
 C   15.744332   22.070783    8.233891
 C   16.100666   23.362648    8.976053
 C   17.605465   23.559532    9.179173
 C   17.946758   24.840381    9.933257
 C   19.450328   25.048896   10.066617
 C   15.358064   23.454908   10.304057
 N   15.621232   22.474920   11.215978
 O   14.562932   24.346607   10.539010
 H   16.148840   19.877016    6.576302
 H   14.685653   20.703447    6.042293
 H   16.136961   20.746551    5.040979
 H   15.853346   22.913018    6.260326
 H   17.320801   22.096116    6.758159
 H   16.154996   21.208721    8.776282
 H   14.656587   21.948247    8.243601
 H   15.725124   24.209266    8.396851
 H   18.095979   23.579954    8.201327
 H   18.024770   22.693384    9.711207
 H   17.485812   24.819471   10.924621
 H   17.500039   25.688284    9.409644
 H   19.912516   24.222470   10.610692
 H   19.925874   25.108605    9.085349
 H   19.673907   25.970155   10.603169
 H   15.207719   22.571961   12.126156
 H   16.370410   21.821045   11.093341
