45 
1nvs_ligand_xtb.xyz
 N   -0.686414    4.392613    0.668524
 C    0.580420    3.833536    0.581683
 O    1.607750    4.449314    0.722617
 C    0.345537    2.405530    0.298334
 C    1.241375    1.354184    0.105055
 C    2.668154    1.206900    0.091940
 C    2.936122   -0.158600   -0.174515
 C    4.236669   -0.633516   -0.241739
 C    5.263105    0.272934   -0.051237
 C    5.008650    1.618473    0.206307
 C    3.717224    2.099547    0.281944
 N    1.741754   -0.832956   -0.323236
 C    0.717460    0.062964   -0.154806
 C   -0.650192   -0.148556   -0.229731
 N   -1.342843   -1.301046   -0.500655
 C   -2.691734   -1.008217   -0.479852
 C   -2.867157    0.367181   -0.191497
 C   -4.146653    0.906038   -0.113021
 C   -5.224025    0.068423   -0.319307
 C   -5.042639   -1.284989   -0.596590
 C   -3.780463   -1.843573   -0.677480
 C   -1.555800    0.925865   -0.034756
 C   -1.036467    2.192704    0.231975
 C   -1.713544    3.480775    0.472937
 O   -2.886557    3.758495    0.510747
 C   -0.733978   -2.584005   -0.759580
 O    0.477034   -2.442925   -1.453397
 C    1.519875   -2.240706   -0.530084
 C    1.088559   -2.942789    0.783978
 C   -0.374742   -3.327393    0.544836
 H   -0.845954    5.371106    0.856334
 H    4.448784   -1.673958   -0.437143
 H    6.285253   -0.072007   -0.101765
 H    5.839465    2.292458    0.349708
 H    3.509408    3.138235    0.482817
 H   -4.276263    1.953867    0.105047
 H   -6.226858    0.463793   -0.263835
 H   -5.906847   -1.914352   -0.749448
 H   -3.655111   -2.895371   -0.886795
 H   -1.412626   -3.153848   -1.402445
 H    2.428189   -2.667122   -0.966712
 H    1.708428   -3.815293    0.976645
 H    1.195150   -2.250878    1.618666
 H   -1.030311   -3.022417    1.357661
 H   -0.477286   -4.400416    0.391770
