45 
1nvs_ligand_aiqm1.xyz
 N   -0.684250    4.433628    0.648358
 C    0.589070    3.871991    0.558803
 O    1.630200    4.468235    0.679200
 C    0.350674    2.423642    0.293280
 C    1.255417    1.377773    0.110632
 C    2.697945    1.228451    0.090288
 C    2.958936   -0.142265   -0.159864
 C    4.259320   -0.641864   -0.232658
 C    5.300052    0.263740   -0.061107
 C    5.059345    1.621851    0.181270
 C    3.762921    2.122221    0.261203
 N    1.749912   -0.821053   -0.285614
 C    0.727963    0.093151   -0.127086
 C   -0.642969   -0.124809   -0.199003
 N   -1.331527   -1.299557   -0.452760
 C   -2.692690   -1.003336   -0.444750
 C   -2.875466    0.371918   -0.162084
 C   -4.168838    0.905146   -0.086267
 C   -5.245913    0.048295   -0.293982
 C   -5.049816   -1.310284   -0.569569
 C   -3.774813   -1.861834   -0.646528
 C   -1.550109    0.938660   -0.010722
 C   -1.023573    2.207026    0.238143
 C   -1.713383    3.509799    0.468475
 O   -2.893029    3.757570    0.502402
 C   -0.737949   -2.589947   -0.791406
 O    0.496707   -2.401863   -1.438173
 C    1.517812   -2.239793   -0.467836
 C    1.001996   -2.917883    0.826493
 C   -0.392842   -3.435726    0.434891
 H   -0.844839    5.409548    0.821622
 H    4.456934   -1.689324   -0.418117
 H    6.320012   -0.093969   -0.116837
 H    5.898310    2.291227    0.307860
 H    3.578655    3.170713    0.449548
 H   -4.321557    1.953860    0.127018
 H   -6.253588    0.435359   -0.242605
 H   -5.908567   -1.950311   -0.725884
 H   -3.635500   -2.913656   -0.858624
 H   -1.410440   -3.089205   -1.483656
 H    2.427106   -2.687050   -0.859205
 H    1.671866   -3.708554    1.154879
 H    0.928957   -2.179187    1.621479
 H   -1.131162   -3.320406    1.224965
 H   -0.357388   -4.481927    0.133429
