62 
1ny2_ligand_ani-2x.xyz
 N   -0.863721   -0.382969    0.686895
 C   -0.819252   -1.871402    0.620685
 C    0.228856   -2.425039   -0.375461
 O   -0.137602   -2.992356   -1.396342
 C   -2.215893   -2.426664    0.306111
 C   -2.859825   -1.860802   -0.966448
 C   -4.396220   -1.861652   -0.935925
 N   -4.967810   -1.065441    0.157850
 C   -4.515501    0.240812    0.295450
 N   -4.468489    1.103223   -0.657931
 N   -4.008958    0.551355    1.537440
 N    1.567727   -2.332785   -0.094791
 C    2.184834   -1.867176    1.147370
 C    2.166762   -0.333969    1.286117
 O    1.407658    0.161635    2.125881
 C    3.569172   -2.546072    1.182173
 C    3.829953   -3.090399   -0.230491
 C    2.459830   -3.163908   -0.910909
 N    2.899346    0.463125    0.477738
 C    2.629863    1.900510    0.492834
 C    1.253900    2.223665   -0.115818
 O    0.667241    1.467872   -0.885885
 C    3.741290    2.458907   -0.403950
 C    3.879119    1.372179   -1.471294
 C    3.691873    0.068089   -0.691238
 N    0.753564    3.452370    0.181958
 C   -0.477953    3.914513   -0.418586
 C   -1.663084    3.002040   -0.107715
 O   -2.571757    3.029632   -1.064763
 O   -1.752400    2.359552    0.920148
 H   -1.807487   -0.052652    0.959412
 H   -0.221000   -0.058215    1.431820
 H   -0.559664    0.076181   -0.191145
 H   -0.531062   -2.211386    1.624177
 H   -2.838642   -2.196403    1.179556
 H   -2.159832   -3.516305    0.248507
 H   -2.496725   -2.411249   -1.836792
 H   -2.534095   -0.820251   -1.107097
 H   -4.791899   -2.877433   -0.831934
 H   -4.780062   -1.474250   -1.886732
 H   -4.930351   -1.568691    1.034198
 H   -4.890156    0.754684   -1.514120
 H   -4.494188    0.194148    2.347358
 H   -3.702089    1.511502    1.626236
 H    1.588861   -2.193060    2.004705
 H    4.351710   -1.865467    1.529122
 H    3.530162   -3.368755    1.900804
 H    4.309225   -4.071540   -0.199091
 H    4.498895   -2.437007   -0.795934
 H    2.470966   -2.796674   -1.943964
 H    2.067500   -4.185505   -0.942432
 H    2.668905    2.279707    1.518244
 H    3.498075    3.442140   -0.818020
 H    4.663793    2.555291    0.178141
 H    4.837621    1.409242   -1.996002
 H    3.075116    1.472348   -2.206276
 H    3.155801   -0.686656   -1.275592
 H    4.655462   -0.342548   -0.372187
 H    1.210348    4.021066    0.876408
 H   -0.703140    4.907452   -0.019050
 H   -0.391691    3.999955   -1.506585
 H   -3.313227    2.370244   -0.853656
