81 
1o44_ligand_ani-2x.xyz
 C    1.706458   -1.280399   -1.146755
 C    0.716628   -0.296957   -1.057005
 C   -0.258406   -0.364427   -0.078292
 C   -0.292363   -1.411497    0.839334
 C    0.679533   -2.422627    0.739276
 C    1.671347   -2.334674   -0.241480
 C    2.848070   -1.132388   -2.124085
 C    4.178145   -0.676029   -1.450357
 C    3.872075    0.326595   -0.334719
 N    3.376668    1.533180   -0.723700
 O    3.999244    0.025371    0.843485
 N    4.902332   -1.766795   -0.847592
 C    5.711379   -2.579405   -1.583339
 O    5.796057   -2.470948   -2.797842
 C    6.470971   -3.611602   -0.775410
 C    2.576171    2.290259    0.219756
 C    1.488150    3.022406   -0.582745
 N    0.513548    3.677169    0.112139
 O    1.496139    2.995533   -1.810069
 C    0.389184    3.605496    1.564790
 C    1.486884    4.361862    2.312242
 C   -0.620503    4.197376   -0.660921
 C   -1.714764    3.166882   -0.852240
 C    2.810527    3.603133    2.409300
 C    3.446025    3.236680    1.068410
 C   -2.721748    3.013827    0.102832
 C   -3.702979    2.044921   -0.037827
 C   -3.698886    1.178692   -1.133624
 C   -2.695695    1.330244   -2.096442
 C   -1.718114    2.306157   -1.956213
 C   -4.728766    0.113756   -1.231573
 C   -5.204981   -0.511044   -0.071462
 C   -6.132334   -1.543024   -0.149380
 C   -6.634578   -1.939345   -1.387672
 C   -6.189060   -1.304169   -2.543096
 C   -5.238758   -0.291618   -2.465651
 C    0.697968   -3.603547    1.655899
 O    1.613098   -4.526297    1.290413
 O    0.004618   -3.782464    2.635130
 C   -1.456855   -1.473217    1.800245
 C   -2.681249   -2.143275    1.183030
 O   -2.690079   -2.048089   -0.155994
 O   -3.560376   -2.681487    1.811001
 C   -1.871153   -0.111463    2.365314
 O   -2.998506    0.309549    2.439055
 O   -0.816453    0.600961    2.803861
 H    0.724216    0.545445   -1.744962
 H   -1.029907    0.409357   -0.033380
 H    2.431558   -3.109311   -0.284635
 H    3.062669   -2.069109   -2.650290
 H    2.577355   -0.392553   -2.888478
 H    4.805826   -0.225090   -2.227188
 H    3.121917    1.679834   -1.692646
 H    4.888712   -1.792986    0.164514
 H    7.103289   -4.189158   -1.450054
 H    5.778222   -4.287365   -0.261817
 H    7.096641   -3.131273   -0.015026
 H    2.088820    1.573924    0.896764
 H    0.356231    2.551516    1.881846
 H   -0.585226    4.033762    1.818979
 H    1.129777    4.574286    3.328638
 H    1.641729    5.329694    1.819725
 H   -0.223568    4.528313   -1.624029
 H   -1.013919    5.072728   -0.131056
 H    2.651944    2.676259    2.982866
 H    3.523207    4.199437    2.991148
 H    3.677933    4.135769    0.483680
 H    4.389837    2.714443    1.251286
 H   -2.740312    3.653058    0.984401
 H   -4.480819    1.956535    0.717544
 H   -2.660297    0.655618   -2.949420
 H   -0.931932    2.389804   -2.702906
 H   -4.796888   -0.237347    0.900515
 H   -6.445583   -2.047268    0.760374
 H   -7.367016   -2.738508   -1.450186
 H   -6.575067   -1.603956   -3.514191
 H   -4.901958    0.205249   -3.374087
 H    1.542986   -5.237374    1.949156
 H   -1.176625   -2.081235    2.666124
 H   -3.550527   -2.389436   -0.462025
 H   -1.177736    1.450013    3.110041
