81 
1o44_ligand_aiqm1.xyz
 C    1.589165   -1.191371   -1.011638
 C    0.652506   -0.209639   -0.674486
 C   -0.340942   -0.464650    0.260258
 C   -0.428843   -1.705757    0.893706
 C    0.477307   -2.717441    0.519616
 C    1.470446   -2.447033   -0.425742
 C    2.755754   -0.893500   -1.918882
 C    4.040268   -0.539073   -1.123861
 C    3.767653    0.610928   -0.151369
 N    3.420018    1.780104   -0.724088
 O    3.843671    0.459251    1.059381
 N    4.536408   -1.636752   -0.341943
 C    5.086086   -2.738817   -0.903883
 O    5.170193   -2.872461   -2.115830
 C    5.544093   -3.791179    0.079833
 C    2.681488    2.753574    0.056178
 C    1.571219    3.267968   -0.861021
 N    0.588912    4.002098   -0.309414
 O    1.601143    2.986092   -2.056494
 C    0.522308    4.290068    1.122345
 C    1.629214    5.222778    1.624552
 C   -0.577789    4.301892   -1.156192
 C   -1.577178    3.166830   -1.171661
 C    2.971266    4.528277    1.851126
 C    3.579738    3.864181    0.621243
 C   -2.560412    3.053325   -0.189600
 C   -3.459769    1.989598   -0.197579
 C   -3.392332    0.997741   -1.183616
 C   -2.394738    1.106483   -2.156743
 C   -1.503263    2.175731   -2.154647
 C   -4.367601   -0.118530   -1.203765
 C   -4.918323   -0.612744   -0.015535
 C   -5.841900   -1.654174   -0.040540
 C   -6.237453   -2.215824   -1.254158
 C   -5.700964   -1.727305   -2.442567
 C   -4.774341   -0.688736   -2.417364
 C    0.392786   -4.091306    1.082132
 O    1.439524   -4.862529    0.714161
 O   -0.489662   -4.532528    1.782454
 C   -1.471682   -1.944960    1.962771
 C   -2.770654   -2.543683    1.469507
 O   -2.705824   -2.961329    0.201916
 O   -3.735515   -2.649000    2.176995
 C   -1.775894   -0.680424    2.745910
 O   -2.573617    0.165695    2.442067
 O   -0.996231   -0.595071    3.835622
 H    0.708753    0.764699   -1.148069
 H   -1.072527    0.302667    0.489060
 H    2.165531   -3.227863   -0.705182
 H    2.989252   -1.757832   -2.534415
 H    2.522797   -0.063962   -2.586420
 H    4.787890   -0.227902   -1.856573
 H    3.182506    1.799787   -1.706323
 H    4.510980   -1.499229    0.657056
 H    6.205302   -4.484590   -0.430034
 H    4.676581   -4.337214    0.453572
 H    6.052473   -3.341619    0.932725
 H    2.226539    2.232786    0.898762
 H    0.532241    3.354973    1.691749
 H   -0.440916    4.760855    1.294441
 H    1.297920    5.649834    2.573366
 H    1.745720    6.054257    0.923941
 H   -0.202373    4.496878   -2.158478
 H   -1.041551    5.213036   -0.776389
 H    2.843519    3.759564    2.621112
 H    3.681292    5.251736    2.254332
 H    3.806580    4.596761   -0.160032
 H    4.520061    3.393866    0.909854
 H   -2.639319    3.799689    0.594444
 H   -4.212299    1.920607    0.576996
 H   -2.300940    0.337041   -2.913962
 H   -0.727483    2.238146   -2.907889
 H   -4.599829   -0.205289    0.935129
 H   -6.236621   -2.033418    0.893606
 H   -6.956628   -3.025164   -1.270788
 H   -6.002556   -2.153397   -3.391254
 H   -4.373569   -0.308601   -3.349838
 H    1.276432   -5.728997    1.104551
 H   -1.085265   -2.670588    2.677676
 H   -3.588681   -3.291738   -0.016332
 H   -1.227948    0.229767    4.281701
