78 
1o48_ligand_aiqm1.xyz
 C   -4.409872   -0.687555   -0.359270
 C   -4.969025   -1.625972    0.511733
 C   -4.718479   -1.558159    1.879304
 C   -3.902721   -0.565832    2.422350
 C   -3.377466    0.405294    1.555033
 C   -3.645086    0.341485    0.185919
 C   -4.533409   -0.830085   -1.857548
 C   -3.704527   -2.016366   -2.426061
 C   -2.392857   -2.199975   -1.656021
 N   -1.529830   -1.172879   -1.704972
 O   -2.176842   -3.224981   -1.022500
 N   -4.412879   -3.266978   -2.344923
 C   -5.369168   -3.594080   -3.248363
 O   -5.785312   -2.789999   -4.068482
 C   -5.875773   -5.016292   -3.166885
 C   -0.539983   -1.026534   -0.648098
 C   -0.321115    0.475769   -0.474410
 N    0.312245    0.883507    0.638753
 O   -0.719434    1.249026   -1.344271
 C    0.841632   -0.052673    1.642900
 C    2.013859   -0.906093    1.145125
 C    0.711549    2.290278    0.732604
 C    2.172672    2.490164    0.411552
 C    1.566894   -2.094701    0.292542
 C    0.778642   -1.754340   -0.968900
 C    2.647601    2.187353   -0.867694
 C    3.998641    2.325449   -1.173148
 C    4.911755    2.780403   -0.214368
 C    4.429328    3.092600    1.059776
 C    3.079643    2.942918    1.369803
 C    6.350268    2.923488   -0.538188
 C    7.090307    4.006756   -0.050121
 C    8.441659    4.141906   -0.355739
 C    9.078612    3.192440   -1.150219
 C    8.354099    2.109024   -1.639891
 C    7.001420    1.977707   -1.338840
 C   -2.476221    1.472146    2.061239
 O   -2.501047    2.570841    1.282690
 O   -1.771472    1.399889    3.041637
 C   -3.610023   -0.576285    3.896733
 C   -2.237754   -1.127817    4.213617
 O   -1.946900   -0.961838    5.518576
 O   -1.490979   -1.669762    3.441084
 H   -5.578536   -2.430815    0.115734
 H   -5.139414   -2.309455    2.538845
 H   -3.219444    1.085968   -0.473877
 H   -4.195442    0.084446   -2.345581
 H   -5.568401   -0.992105   -2.151641
 H   -3.485059   -1.784473   -3.470928
 H   -1.787806   -0.299778   -2.141335
 H   -3.964180   -3.968033   -1.772322
 H   -5.338274   -5.622219   -3.897135
 H   -5.727993   -5.447913   -2.176643
 H   -6.930162   -5.030304   -3.429132
 H   -0.943202   -1.454781    0.264170
 H    1.153019    0.558663    2.490195
 H    0.029902   -0.694420    1.991744
 H    2.535118   -1.296558    2.022321
 H    2.730139   -0.280478    0.602856
 H    0.100109    2.835567    0.015525
 H    0.494139    2.646236    1.745097
 H    2.441931   -2.686199    0.014091
 H    0.937056   -2.745777    0.906912
 H    1.372736   -1.160735   -1.673152
 H    0.510221   -2.683144   -1.473163
 H    1.948923    1.835892   -1.619363
 H    4.349309    2.092655   -2.171384
 H    5.119536    3.433927    1.821988
 H    2.732906    3.175727    2.371257
 H    6.598001    4.756659    0.557758
 H    8.995161    4.990418    0.025649
 H   10.129110    3.296343   -1.386306
 H    8.840841    1.364244   -2.256444
 H    6.446004    1.126722   -1.714921
 H   -1.880073    3.194565    1.671924
 H   -3.679967    0.414013    4.343983
 H   -4.325610   -1.216987    4.417000
 H   -1.063454   -1.327317    5.651719
