21 
1o4l_ligand_aiqm1.xyz
 C   15.117213   28.755127   17.639501
 O   14.409455   28.870557   16.494430
 O   14.714193   28.077405   18.539315
 C   16.436248   29.506591   17.685157
 C   17.607820   28.738984   17.022599
 O   17.871960   27.545361   17.722756
 C   18.871668   29.595752   17.090162
 C   20.076224   29.002492   16.368312
 O   20.718602   29.628531   15.572402
 O   20.372948   27.743251   16.697526
 C   17.199826   28.371129   15.581806
 O   17.064349   29.387504   14.712718
 O   16.906341   27.249849   15.282533
 H   14.872371   29.420700   15.852851
 H   16.686434   29.635096   18.734661
 H   16.335765   30.490826   17.221664
 H   17.354061   26.839325   17.313366
 H   19.138523   29.711368   18.141322
 H   18.687463   30.593156   16.693817
 H   19.671420   27.398701   17.276722
 H   17.575816   30.150495   15.000377
