59 
1o5r_ligand_xtb.xyz
 C    1.523787   -1.603666    0.742458
 N    2.798936   -1.915759    0.394404
 C    2.740523   -3.108976   -0.252424
 N    1.524472   -3.560488   -0.344368
 C    0.733290   -2.622422    0.265584
 C   -0.729122   -2.726659    0.263449
 O   -1.465176   -1.791905    0.554134
 N   -1.180038   -3.935460   -0.113304
 C    3.962593   -1.091516    0.620153
 C    4.893637   -1.760253    1.644258
 O    5.441953   -2.925911    1.074886
 C    4.706472   -0.817536   -0.692872
 C    3.858941   -0.052344   -1.721143
 N    3.568282    1.287316   -1.295875
 C    4.501350    2.294401   -1.228799
 C    3.957902    3.409114   -0.674368
 C    2.605191    3.097049   -0.359512
 C    2.394404    1.757897   -0.766253
 C    1.553576    3.802357    0.225858
 C    0.348855    3.174119    0.427696
 C    0.146842    1.840354    0.029958
 C    1.163149    1.137799   -0.606442
 N   -1.040960    1.163838    0.287550
 C   -2.225008    1.662880    0.787671
 O   -2.485940    2.842078    0.926350
 N   -3.090625    0.667470    1.123941
 C   -4.454211    0.944634    1.506585
 C   -6.494733   -0.344376    0.767536
 C   -5.434278    0.493596    0.454024
 C   -5.269337    0.909816   -0.861984
 C   -6.149274    0.495985   -1.844534
 C   -7.207626   -0.338222   -1.522840
 C   -7.379691   -0.755707   -0.214757
 H    1.273418   -0.722949    1.296420
 H    3.607886   -3.614849   -0.622898
 H   -2.166614   -4.098363   -0.221139
 H   -0.508849   -4.622917   -0.412887
 H    3.610642   -0.144572    1.045121
 H    4.315486   -2.002284    2.547495
 H    5.685288   -1.048962    1.917330
 H    5.992065   -3.369984    1.727423
 H    5.030786   -1.765234   -1.121533
 H    5.595680   -0.230019   -0.459002
 H    2.918370   -0.577087   -1.901873
 H    4.413145   -0.014772   -2.665649
 H    5.494780    2.131788   -1.603008
 H    4.450769    4.345948   -0.506118
 H    1.691298    4.829378    0.528998
 H   -0.470963    3.696863    0.890051
 H    0.980864    0.132977   -0.959171
 H   -1.009635    0.155934    0.172611
 H   -2.831602   -0.293543    0.957778
 H   -4.676275    0.459442    2.463633
 H   -4.516796    2.030822    1.636967
 H   -6.631946   -0.674252    1.787961
 H   -4.446664    1.565808   -1.106641
 H   -6.012839    0.826791   -2.863979
 H   -7.896888   -0.660545   -2.289781
 H   -8.203943   -1.405798    0.041703
