59 
1o5r_ligand_aiqm1.xyz
 C    1.447586   -1.724121    0.739159
 N    2.768766   -1.899649    0.431191
 C    2.867572   -3.108741   -0.190052
 N    1.700137   -3.697719   -0.319099
 C    0.800091   -2.827495    0.244334
 C   -0.648616   -3.080080    0.215324
 O   -1.481355   -2.216674    0.487697
 N   -0.976573   -4.335123   -0.149501
 C    3.850805   -0.944324    0.688076
 C    4.695139   -1.413889    1.863119
 O    5.328295   -2.628374    1.479019
 C    4.693101   -0.713701   -0.566124
 C    3.943821   -0.065885   -1.735481
 N    3.567989    1.304246   -1.472925
 C    4.448034    2.373614   -1.474581
 C    3.838077    3.490941   -0.974396
 C    2.504544    3.105376   -0.613150
 C    2.374376    1.739048   -0.939573
 C    1.410342    3.759224   -0.027261
 C    0.252641    3.059354    0.258220
 C    0.146904    1.684003   -0.067111
 C    1.193316    1.030587   -0.703070
 N   -0.969753    0.908279    0.263360
 C   -2.152493    1.316297    0.860311
 O   -2.426266    2.481261    1.114022
 N   -2.983946    0.281131    1.145830
 C   -4.327528    0.521133    1.640498
 C   -6.328709   -0.559899    0.522076
 C   -5.367460    0.449998    0.543180
 C   -5.358399    1.397994   -0.484510
 C   -6.297702    1.334403   -1.510386
 C   -7.255278    0.322593   -1.522628
 C   -7.270038   -0.624807   -0.502340
 H    1.071316   -0.840882    1.227282
 H    3.812488   -3.522146   -0.494977
 H   -1.942443   -4.566264   -0.289760
 H   -0.244769   -4.947394   -0.463227
 H    3.374367   -0.012614    0.988763
 H    4.050525   -1.564265    2.731598
 H    5.437593   -0.646115    2.098750
 H    5.704261   -3.045800    2.252552
 H    5.114829   -1.663965   -0.889923
 H    5.530927   -0.071640   -0.285560
 H    3.044551   -0.631873   -1.974698
 H    4.585109   -0.074951   -2.617432
 H    5.448970    2.237040   -1.857172
 H    4.292229    4.463044   -0.881765
 H    1.472295    4.812957    0.217180
 H   -0.585651    3.551864    0.723659
 H    1.089847   -0.003883   -0.996603
 H   -0.916420   -0.073877    0.032696
 H   -2.713509   -0.655126    0.883819
 H   -4.554741   -0.222567    2.411550
 H   -4.330296    1.507636    2.100025
 H   -6.336369   -1.300600    1.314135
 H   -4.609254    2.180263   -0.469393
 H   -6.282004    2.073280   -2.301783
 H   -7.984488    0.272760   -2.320887
 H   -8.011181   -1.414761   -0.505228
