21 
1oay_ligand_ani-2x.xyz
 O   39.479418   55.128601   81.913771
 N   38.671265   55.075874   81.000176
 O   37.788614   55.879407   80.770937
 C   38.797353   53.946559   80.127650
 O   37.924280   53.856006   79.112439
 C   39.679487   52.915236   80.152269
 C   39.315903   52.107253   79.042192
 C   38.249801   52.722489   78.448609
 C   37.464791   52.357625   77.284012
 N   36.477623   53.091532   76.934793
 N   35.761108   52.706786   75.848401
 C   34.501487   53.252053   75.602374
 O   33.852989   54.005951   76.265558
 C   36.140580   51.898743   74.766900
 C   35.121617   51.933432   73.910929
 O   34.115224   52.737657   74.390228
 H   40.471705   52.770683   80.872559
 H   39.777469   51.186309   78.715981
 H   37.752306   51.433710   76.780345
 H   37.103345   51.416338   74.709192
 H   34.948334   51.472854   72.951786
