21 
1oay_ligand_aiqm1.xyz
 O   39.440765   54.994515   82.037366
 N   38.606307   54.971550   81.141263
 O   37.675516   55.744242   81.000977
 C   38.767660   53.921216   80.179205
 O   37.874128   53.857705   79.176609
 C   39.709970   52.941122   80.109169
 C   39.363917   52.198258   78.947753
 C   38.247004   52.796544   78.424259
 C   37.478456   52.453368   77.250576
 N   36.451195   53.140334   76.913256
 N   35.781599   52.759685   75.803092
 C   34.653843   53.472792   75.388540
 O   34.142699   54.428041   75.878670
 C   36.019248   51.700090   74.915033
 C   35.057449   51.779627   73.994285
 O   34.220500   52.836999   74.253056
 H   40.523538   52.789527   80.796997
 H   39.869167   51.336609   78.548694
 H   37.844784   51.588007   76.704570
 H   36.826672   51.000055   75.008903
 H   34.840281   51.184813   73.128828
