21 
1oba_ligand_ani-2x.xyz
 C   32.896839   22.867755   13.253202
 C   34.255611   22.536441   12.664726
 C   34.278940   20.086785   12.229827
 C   33.121318   21.554525   10.671369
 C   35.528131   21.579281   10.824174
 O   32.321970   21.690825   13.794206
 N   34.275664   21.443733   11.606414
 H   32.251928   23.306481   12.478557
 H   33.041755   23.628834   14.032049
 H   34.943389   22.220177   13.452436
 H   34.662385   23.434979   12.193884
 H   33.373722   19.960260   12.814340
 H   34.338638   19.339677   11.431712
 H   35.161555   20.005903   12.869939
 H   33.232480   20.799241    9.888238
 H   32.194689   21.382333   11.217270
 H   33.116457   22.549295   10.216976
 H   36.386158   21.489734   11.496388
 H   35.565405   20.787216   10.072424
 H   35.544649   22.555304   10.332052
 H   31.474317   21.922619   14.190917
