21 
1oba_ligand_dft.xyz
 C    1.715226    0.726554    0.002292
 C    0.327308    0.869545   -0.600960
 C   -0.679985   -1.403224   -0.570727
 C   -0.626719   -0.089452    1.493470
 C   -2.085578    0.576620   -0.347714
 O    2.112910   -0.621211   -0.058863
 N   -0.753172   -0.013808    0.003310
 H    1.727636    1.108342    1.032459
 H    2.365592    1.380300   -0.594288
 H    0.344862    0.635996   -1.667864
 H   -0.001943    1.903967   -0.473382
 H    0.316125   -1.800946   -0.389679
 H   -1.443096   -2.014820   -0.087218
 H   -0.875162   -1.346201   -1.642447
 H   -1.486504   -0.633783    1.886002
 H    0.293190   -0.619139    1.739219
 H   -0.612392    0.921695    1.903502
 H   -2.140536    0.707664   -1.429453
 H   -2.871780   -0.103495   -0.017345
 H   -2.194112    1.540519    0.151513
 H    3.045542   -0.694007    0.178548
