21 
1oba_ligand_aiqm1.xyz
 C   32.901572   22.874656   13.218917
 C   34.260207   22.523826   12.660295
 C   34.271637   20.081010   12.240637
 C   33.105413   21.558324   10.677800
 C   35.529204   21.597988   10.817970
 O   32.298037   21.684222   13.691908
 N   34.268892   21.439257   11.605576
 H   32.271945   23.356504   12.468996
 H   33.069443   23.584394   14.024139
 H   34.915057   22.171516   13.453244
 H   34.695494   23.406057   12.196572
 H   33.377212   19.963335   12.835923
 H   34.303395   19.337168   11.448896
 H   35.155733   19.999131   12.867051
 H   33.232976   20.838223    9.874923
 H   32.196038   21.346557   11.227652
 H   33.083800   22.566731   10.275097
 H   36.371827   21.593323   11.503918
 H   35.613507   20.769400   10.121836
 H   35.492199   22.538920   10.276051
 H   31.552410   21.910858   14.243700
