45 
1ocn_ligand_xtb.xyz
 C   -1.901019   -1.631189    0.248743
 C   -3.271199   -1.071558   -0.169863
 C   -3.406257    0.411192    0.216111
 C   -2.197967    1.183950   -0.321823
 C   -2.205033    2.650745    0.094420
 C   -0.799941   -0.705109   -0.295905
 O   -1.800899   -2.927322   -0.275167
 O   -4.317542   -1.760043    0.456536
 O   -4.567877    0.967904   -0.323095
 O   -1.001913    0.604707    0.169337
 O   -1.108536    3.293677   -0.526314
 O    0.437454   -1.145882    0.173851
 C    1.591846   -0.700387   -0.526117
 C    1.706241    0.843437   -0.552733
 O    2.692908    1.225463   -1.494206
 C    2.018453    1.381851    0.849532
 N    3.164707    0.660011    1.440106
 C    2.868007   -0.779610    1.611755
 C    2.757549   -1.388058    0.213625
 C    4.119648   -1.350888   -0.503434
 O    4.744969   -0.078500   -0.476587
 H   -1.831129   -1.637062    1.346383
 H   -3.353131   -1.164355   -1.265254
 H   -3.415439    0.476134    1.316243
 H   -2.206089    1.134497   -1.421058
 H   -3.160559    3.077199   -0.221926
 H   -2.116258    2.715996    1.186174
 H   -0.825763   -0.727542   -1.403935
 H   -0.967275   -3.321763    0.003844
 H   -4.222506   -2.700418    0.261705
 H   -5.303288    0.380171   -0.103133
 H   -1.256931    4.244807   -0.491555
 H    1.550818   -1.047188   -1.570113
 H    0.735316    1.255972   -0.836085
 H    2.405758    2.009931   -1.971810
 H    1.126798    1.242051    1.463317
 H    2.251388    2.445800    0.786741
 H    3.447332    1.093102    2.320665
 H    3.978082    0.642515    0.732204
 H    3.678932   -1.251563    2.168681
 H    1.927106   -0.908206    2.149760
 H    2.473806   -2.438259    0.314543
 H    4.009391   -1.703233   -1.531321
 H    4.803303   -2.026279    0.017689
 H    4.390058    0.453337   -1.209393
