32 
1odi_ligand_ani-2x.xyz
 O   -2.499634    1.299515    1.186377
 C   -3.345655    1.399127    0.058429
 C   -2.865494    0.415834   -0.993156
 O   -1.558964    0.808526   -1.428095
 C   -2.738784   -1.030109   -0.504044
 O   -3.019968   -1.884618   -1.590922
 C   -1.263872   -1.130017   -0.126370
 O   -0.811886   -2.451185   -0.246560
 C   -0.611610   -0.195936   -1.150520
 N    0.598497    0.430733   -0.647432
 C    0.921307    1.776817   -0.611131
 N    2.122652    2.019940   -0.169733
 C    2.636593    0.762095    0.106319
 C    3.876956    0.319246    0.598833
 N    4.849856    1.193562    0.929156
 N    4.092151   -0.996515    0.759551
 C    3.105407   -1.835139    0.449853
 N    1.883243   -1.545111   -0.014640
 C    1.710389   -0.230944   -0.179141
 H   -2.667467    2.049706    1.768258
 H   -4.389205    1.156437    0.316646
 H   -3.326444    2.408182   -0.377228
 H   -3.537688    0.450533   -1.857943
 H   -3.397865   -1.248962    0.350807
 H   -2.452232   -2.662301   -1.474370
 H   -1.098500   -0.726149    0.879427
 H    0.162261   -2.436256   -0.145086
 H   -0.375352   -0.754589   -2.067030
 H    0.196600    2.513969   -0.931115
 H    5.761865    0.842105    1.172510
 H    4.726471    2.168630    0.704869
 H    3.316173   -2.887226    0.601184
