33 
1odj_ligand_aiqm1.xyz
 O   -2.368843   -2.360155   -0.468157
 C   -3.488826   -1.562602   -0.097909
 C   -3.096915   -0.105024   -0.181588
 O   -2.169127    0.210551    0.877605
 C   -2.414838    0.288837   -1.488840
 O   -2.831508    1.602276   -1.812843
 C   -0.933970    0.251608   -1.131619
 O   -0.223139    1.143048   -1.957912
 C   -0.952748    0.667967    0.344851
 N    0.135182    0.071983    1.128231
 C    0.053562   -0.660609    2.291481
 N    1.226507   -1.008459    2.756748
 C    2.124244   -0.475784    1.856747
 C    3.561445   -0.538006    1.829431
 O    4.356816   -1.056805    2.579637
 N    4.048931    0.165616    0.680848
 C    3.290536    0.773869   -0.270322
 N    3.969081    1.301303   -1.340173
 N    1.989746    0.838331   -0.243421
 C    1.461438    0.189804    0.845591
 H   -2.544967   -3.271179   -0.236450
 H   -3.808138   -1.782244    0.923357
 H   -4.330418   -1.742768   -0.774804
 H   -3.991070    0.500758   -0.024799
 H   -2.649938   -0.401426   -2.302362
 H   -2.103025    2.008081   -2.290962
 H   -0.556559   -0.771380   -1.205721
 H    0.674425    1.183749   -1.591751
 H   -0.881892    1.757011    0.436878
 H   -0.897056   -0.902433    2.730427
 H    5.049045    0.111029    0.558480
 H    4.888801    1.658957   -1.149532
 H    3.413015    1.914395   -1.911649
