23 
1ofz_ligand_xtb.xyz
 C    0.820553   -1.310878   -0.431255
 C    1.499711   -0.028553    0.087003
 O    2.820519    0.072066   -0.388021
 C    0.701108    1.183848   -0.393114
 O    1.214110    2.379204    0.144770
 C   -0.753946    1.038157    0.079432
 O   -0.818412    1.141827    1.476701
 C   -1.320481   -0.320072   -0.374632
 C   -2.703126   -0.566849    0.209389
 O   -0.493055   -1.394500    0.032658
 O    1.512530   -2.438202   -0.005263
 H    0.857252   -1.308376   -1.537241
 H    1.487314   -0.052002    1.189442
 H    3.206646   -0.812978   -0.362859
 H    0.736409    1.215102   -1.493612
 H    2.170008    2.361765    0.013703
 H   -1.353591    1.838081   -0.385016
 H   -0.260479    1.893858    1.719232
 H   -1.362843   -0.307341   -1.477819
 H   -2.644096   -0.500726    1.290966
 H   -3.044543   -1.557972   -0.072808
 H   -3.398901    0.179478   -0.160801
 H    1.127313   -2.705237    0.838946
