87 
1ogg_ligand_aiqm1.xyz
 C   -3.691717   -0.565398    0.003840
 C   -4.430833    0.419743    0.915430
 C   -5.790069   -0.149629    1.288408
 C   -6.554534   -0.532157    0.024659
 C   -5.703117   -1.446671   -0.866778
 C   -6.337235   -1.709638   -2.218352
 C   -2.805788    1.780715    2.121828
 C   -1.826486    1.794742    3.264419
 N   -3.652628    0.719819    2.090386
 O   -5.557816   -1.297033    2.099093
 O   -7.739423   -1.174676    0.462662
 O   -4.456736   -0.830339   -1.162059
 O   -7.555784   -2.422654   -1.997656
 O   -2.830727    2.649095    1.260740
 C    0.909897    0.626076    0.068800
 C    0.151936    1.073684   -1.191934
 C   -0.595461   -0.108080   -1.815854
 C   -1.440932   -0.849559   -0.785527
 C   -0.633842   -1.222485    0.461144
 C    0.237171   -2.459426    0.271561
 C   -0.127462    3.455467   -0.948968
 C   -1.046129    4.606889   -0.634947
 N   -0.676049    2.220867   -0.884786
 O   -1.368903    0.250089   -2.946237
 O   -2.518827    0.038275   -0.431992
 O    0.116782   -0.117496    0.971130
 O    0.849369   -2.834137    1.482543
 O    1.048684    3.620606   -1.270906
 C    5.573847    0.761046    0.400692
 C    5.267770   -0.326466    1.472765
 C    3.886877   -0.888288    1.100954
 C    3.233358    0.287766    0.408401
 C    4.336193    0.811417   -0.510438
 C    4.052314    2.173448   -1.124199
 C    6.920409   -1.073285    0.026249
 C    6.337921   -3.299581   -0.672260
 C    6.778446   -1.612186   -2.298063
 N    6.355892   -1.304208    1.348202
 N    6.239592   -1.876719   -0.968719
 O    3.104957   -1.295560    2.222641
 O    2.058498   -0.080751   -0.310795
 O    3.593168    3.069988   -0.121792
 O    6.752519    0.307771   -0.260510
 H   -3.490298   -1.515525    0.523896
 H   -4.568982    1.346917    0.366815
 H   -6.364477    0.590843    1.852714
 H   -6.789367    0.384184   -0.536175
 H   -5.541475   -2.400900   -0.345533
 H   -6.534715   -0.757372   -2.718101
 H   -5.648669   -2.296548   -2.827506
 H   -0.920808    1.288258    2.929890
 H   -2.214493    1.274201    4.138718
 H   -1.581547    2.822851    3.516476
 H   -3.561289   -0.006111    2.782213
 H   -6.407906   -1.737139    2.185327
 H   -8.083008   -1.689701   -0.275580
 H   -7.999444   -2.540009   -2.837477
 H    1.168445    1.517545    0.635509
 H    0.886761    1.426340   -1.913448
 H    0.165573   -0.802441   -2.175031
 H   -1.851995   -1.756048   -1.238722
 H   -1.342980   -1.448735    1.262508
 H   -0.398218   -3.293566   -0.037808
 H    0.981443   -2.280945   -0.511582
 H   -1.612993    4.849140   -1.534716
 H   -0.446810    5.469664   -0.356721
 H   -1.747546    4.349214    0.156421
 H   -1.591563    2.105077   -0.468904
 H   -2.210629    0.578808   -2.614528
 H    1.436229   -2.113326    1.745261
 H    5.784928    1.736837    0.836173
 H    5.226672    0.089378    2.479438
 H    4.010359   -1.709083    0.395007
 H    2.995147    1.048156    1.159395
 H    4.483429    0.087906   -1.311526
 H    3.316509    2.072153   -1.921916
 H    4.972549    2.574172   -1.563832
 H    8.003255   -1.279811    0.013865
 H    5.778937   -3.853380   -1.427409
 H    7.381421   -3.655465   -0.684621
 H    5.903886   -3.502607    0.305718
 H    7.843551   -1.885618   -2.369276
 H    6.664931   -0.557417   -2.545112
 H    6.223782   -2.205349   -3.026054
 H    7.066628   -1.073253    2.029073
 H    3.497069   -2.095617    2.581306
 H    2.756989    3.438241   -0.429606
