87 
1ogg_ligand_xtb.xyz
 C   -3.654483   -0.529226   -0.082629
 C   -4.381683    0.436026    0.874731
 C   -5.703765   -0.198654    1.303406
 C   -6.523856   -0.615919    0.068301
 C   -5.657169   -1.475384   -0.871901
 C   -6.368697   -1.764702   -2.196285
 C   -2.664829    1.726803    2.030114
 C   -1.697050    1.702532    3.182146
 N   -3.554313    0.706629    2.020053
 O   -5.418916   -1.325549    2.097639
 O   -7.629257   -1.336778    0.552258
 O   -4.456205   -0.820018   -1.209549
 O   -7.541789   -2.510396   -1.941081
 O   -2.666293    2.587262    1.170587
 C    0.890738    0.689316    0.074888
 C    0.190303    1.133182   -1.228868
 C   -0.543557   -0.048561   -1.882890
 C   -1.416322   -0.791651   -0.857668
 C   -0.611840   -1.163790    0.397663
 C    0.332482   -2.360936    0.167097
 C   -0.110477    3.507860   -0.936893
 C   -1.093355    4.613880   -0.667246
 N   -0.663461    2.273690   -1.001310
 O   -1.301936    0.339644   -2.990718
 O   -2.495648    0.082508   -0.521272
 O    0.058291   -0.035818    0.937602
 O    0.940452   -2.764175    1.358898
 O    1.080176    3.699402   -1.131807
 C    5.600177    0.732120    0.420997
 C    5.273986   -0.317833    1.522988
 C    3.863556   -0.836320    1.196105
 C    3.228359    0.343420    0.454927
 C    4.352293    0.820607   -0.471041
 C    4.102266    2.217274   -1.057587
 C    6.825432   -1.150539    0.046805
 C    6.050255   -3.331416   -0.586961
 C    6.472813   -1.679689   -2.262193
 N    6.299718   -1.340670    1.384172
 N    6.032475   -1.915813   -0.899919
 O    3.105596   -1.166834    2.339142
 O    2.060280   -0.002605   -0.258885
 O    3.666037    3.128199   -0.075678
 O    6.750739    0.226516   -0.227266
 H   -3.440150   -1.468414    0.462501
 H   -4.547996    1.380587    0.347923
 H   -6.292075    0.524845    1.889161
 H   -6.846712    0.288485   -0.471022
 H   -5.441053   -2.427812   -0.358947
 H   -6.607762   -0.809929   -2.681641
 H   -5.677254   -2.319140   -2.840520
 H   -0.858353    1.069529    2.891821
 H   -2.154694    1.301867    4.081833
 H   -1.323200    2.705418    3.367774
 H   -3.486599   -0.041775    2.692847
 H   -6.247638   -1.822293    2.162556
 H   -7.997573   -1.846937   -0.185148
 H   -7.953939   -2.742396   -2.779713
 H    1.135434    1.592992    0.652187
 H    0.980033    1.473665   -1.909167
 H    0.215621   -0.742220   -2.258357
 H   -1.820994   -1.696699   -1.327936
 H   -1.307020   -1.443364    1.200732
 H   -0.256605   -3.212852   -0.184667
 H    1.081562   -2.101775   -0.589926
 H   -1.687944    4.785713   -1.562140
 H   -0.557519    5.525569   -0.419793
 H   -1.759503    4.329913    0.141663
 H   -1.567390    2.118454   -0.571686
 H   -2.071337    0.821093   -2.657440
 H    1.490927   -2.028913    1.686430
 H    5.853859    1.716779    0.821175
 H    5.272933    0.107303    2.528654
 H    3.936645   -1.690785    0.513596
 H    3.006012    1.128834    1.187230
 H    4.453380    0.102152   -1.286252
 H    3.364786    2.135114   -1.860396
 H    5.043629    2.584060   -1.488747
 H    7.895291   -1.438324   -0.003931
 H    5.341812   -3.837446   -1.240340
 H    7.047102   -3.775805   -0.730729
 H    5.751479   -3.469277    0.448871
 H    7.467978   -2.108877   -2.454748
 H    6.515350   -0.608009   -2.441158
 H    5.753930   -2.132809   -2.942636
 H    7.039713   -1.194637    2.061422
 H    3.536846   -1.904987    2.784779
 H    2.801847    3.474506   -0.348675
