49 
1ogu_ligand_aiqm1.xyz
 C    7.976619   43.890461   50.299312
 C    5.072357   45.332821   52.594393
 C    4.193438   46.104555   53.558763
 C    4.578777   45.846556   55.015378
 C    3.657938   46.607144   55.967991
 C    2.195690   46.239651   55.725789
 C    1.807352   46.503386   54.272936
 C    2.726481   45.742034   53.321392
 C    5.200867   41.035601   47.450218
 C    4.187368   40.812473   48.383499
 C    4.333560   41.328367   49.670913
 C    5.469289   42.040390   50.040225
 N    2.189286   39.543731   48.941284
 N    6.986345   44.348889   51.089524
 C    7.335013   45.309859   51.936779
 O    6.414202   45.830420   52.728683
 C    8.656148   45.816483   52.043978
 N    8.902221   46.800439   52.985610
 N   10.882213   45.637865   51.141081
 C    9.607780   45.238765   51.140658
 N    9.253317   44.284391   50.268117
 N    7.690563   42.916367   49.395603
 C    6.486573   42.252675   49.102477
 C    6.340217   41.737523   47.807117
 C    2.983358   40.045296   47.941634
 O   10.073746   47.221078   53.048725
 O    2.710988   39.892099   46.765608
 H    4.742371   45.459423   51.561009
 H    5.062948   44.265110   52.829168
 H    4.327588   47.172001   53.349850
 H    5.621455   46.123941   55.185020
 H    4.495554   44.770497   55.214456
 H    3.788486   47.682422   55.810645
 H    3.936265   46.401934   57.003332
 H    1.543583   46.796966   56.401015
 H    2.051406   45.176531   55.947133
 H    1.884545   47.576146   54.068589
 H    0.768564   46.219332   54.094174
 H    2.599709   44.664818   53.487641
 H    2.450263   45.940989   52.281911
 H    5.075216   40.656009   46.446778
 H    3.535886   41.198858   50.392920
 H    5.563916   42.440888   51.037395
 H    1.475516   38.906601   48.631251
 H    2.584398   39.366287   49.846725
 H   11.146008   46.358964   51.800506
 H   11.512868   45.204875   50.490194
 H    8.460543   42.724045   48.775473
 H    7.126204   41.902943   47.078227
