49 
1ogu_ligand_xtb.xyz
 C    7.948596   43.916048   50.262130
 C    5.046722   45.346516   52.566268
 C    4.158898   46.066189   53.578472
 C    4.628337   45.787160   55.006588
 C    3.741201   46.512900   56.012983
 C    2.285347   46.088978   55.844453
 C    1.813564   46.362951   54.419781
 C    2.700815   45.637897   53.411569
 C    5.457855   40.550570   47.728863
 C    4.233385   40.802143   48.345274
 C    4.163233   41.803280   49.309758
 C    5.286337   42.523507   49.666352
 N    2.056094   39.876618   48.811527
 N    6.973911   44.403784   51.041487
 C    7.289026   45.366851   51.887512
 O    6.362386   45.878001   52.667335
 C    8.614932   45.882203   51.989650
 N    8.864562   46.851303   52.892180
 N   10.830899   45.697178   51.118122
 C    9.571443   45.278137   51.097113
 N    9.219262   44.307886   50.254540
 N    7.682478   42.928247   49.377762
 C    6.513826   42.252321   49.064750
 C    6.584314   41.257340   48.085701
 C    3.057413   40.001447   47.902692
 O   10.027987   47.309608   52.986964
 O    2.988114   39.493658   46.802689
 H    4.676642   45.495114   51.544543
 H    5.076987   44.268868   52.767679
 H    4.241547   47.140834   53.388740
 H    5.664010   46.111257   55.114215
 H    4.586471   44.711330   55.195493
 H    3.825313   47.590571   55.858675
 H    4.078019   46.293365   57.027748
 H    1.654900   46.628547   56.553793
 H    2.191192   45.021677   56.058035
 H    1.852041   47.437075   54.226713
 H    0.777846   46.038364   54.300298
 H    2.622597   44.559263   53.568958
 H    2.362102   45.853883   52.395769
 H    5.500982   39.788653   46.965703
 H    3.219905   42.054623   49.772611
 H    5.230484   43.302386   50.406083
 H    1.265504   39.304737   48.564824
 H    2.157603   40.169355   49.765691
 H   11.036247   46.440003   51.796521
 H   11.509164   45.276495   50.506293
 H    8.505232   42.651942   48.855134
 H    7.529275   41.047839   47.605068
