49 
1ogu_ligand_ani-2x.xyz
 C    8.023848   43.885270   50.291872
 C    5.081126   45.329418   52.519339
 C    4.187583   46.090109   53.488687
 C    4.560063   45.785935   54.943427
 C    3.638647   46.517722   55.921657
 C    2.166891   46.189416   55.658292
 C    1.788167   46.499234   54.207940
 C    2.711701   45.768376   53.230430
 C    5.101772   41.154747   47.497096
 C    4.151149   40.887711   48.482661
 C    4.386131   41.335413   49.782627
 C    5.547836   42.018896   50.109937
 N    2.233276   39.522064   49.095382
 N    7.042065   44.328166   51.091717
 C    7.372619   45.277515   51.947184
 O    6.430047   45.771683   52.739056
 C    8.686501   45.792631   52.071425
 N    8.916373   46.759674   53.029831
 N   10.907501   45.651536   51.155162
 C    9.639221   45.239083   51.156109
 N    9.293554   44.294126   50.268386
 N    7.723517   42.918153   49.372017
 C    6.503839   42.270383   49.118596
 C    6.273279   41.818603   47.812823
 C    2.908695   40.157827   48.082881
 O   10.067447   47.198965   53.124425
 O    2.507761   40.142470   46.932275
 H    4.808504   45.521792   51.475262
 H    5.026024   44.245375   52.687161
 H    4.352116   47.164083   53.311022
 H    5.607451   46.050679   55.122698
 H    4.477627   44.699756   55.104621
 H    3.790563   47.601318   55.808812
 H    3.909217   46.271397   56.955388
 H    1.520246   46.741662   56.351153
 H    1.995503   45.120777   55.854664
 H    1.872110   47.582686   54.038178
 H    0.741656   46.233042   54.017070
 H    2.566882   44.681380   53.336607
 H    2.449515   46.020019   52.193906
 H    4.901323   40.828818   46.480993
 H    3.635795   41.180311   50.554677
 H    5.723037   42.336122   51.131946
 H    1.478465   38.926004   48.787283
 H    2.729275   39.224142   49.921414
 H   11.177045   46.357293   51.829125
 H   11.549732   45.235206   50.499101
 H    8.486017   42.731374   48.736625
 H    7.016290   42.010539   47.042161
