38 
1ogz_ligand_xtb.xyz
 C    4.545361    0.896815    0.870443
 C    3.777163    1.515736   -0.083048
 C    2.462808    1.087135   -0.340544
 C    1.911907   -0.001139    0.390142
 C    2.732263   -0.612024    1.363793
 C    4.006968   -0.179605    1.598003
 C    1.673699    1.725225   -1.319103
 C    0.401215    1.301498   -1.562717
 C   -0.153579    0.226838   -0.846355
 C    0.581454   -0.428612    0.120358
 C   -1.540103   -0.258342   -1.145264
 C   -2.216619   -0.765553    0.133517
 C   -1.433855   -1.975272    0.618897
 C    0.010967   -1.564462    0.941796
 C   -2.579459    0.682143   -1.758152
 C   -3.894816   -0.065142   -1.503906
 C   -3.645303   -0.994087   -0.325172
 C   -2.311749    0.305713    1.231658
 O    5.813995    1.338676    1.092416
 O   -4.444622   -1.753235    0.152206
 H    4.190276    2.341440   -0.640997
 H    2.355826   -1.440905    1.941554
 H    4.616790   -0.665312    2.349606
 H    2.095682    2.552418   -1.870510
 H   -0.198405    1.790570   -2.315219
 H   -1.445043   -1.118541   -1.824550
 H   -1.900820   -2.412729    1.502542
 H   -1.440462   -2.736140   -0.164861
 H    0.063422   -1.265673    1.992935
 H    0.654179   -2.440525    0.825417
 H   -2.412981    0.851726   -2.821106
 H   -2.570388    1.647581   -1.251892
 H   -4.739623    0.592054   -1.297369
 H   -4.172560   -0.684530   -2.359242
 H   -2.690843   -0.148677    2.144355
 H   -2.993025    1.103482    0.946247
 H   -1.336555    0.742353    1.429268
 H    6.227232    0.809304    1.784957
