38 
1ogz_ligand_ani-2x.xyz
 C    4.587733    0.874898    0.853167
 C    3.818132    1.519133   -0.079790
 C    2.490101    1.100695   -0.335684
 C    1.944079    0.002461    0.377703
 C    2.773549   -0.635988    1.338773
 C    4.057945   -0.219996    1.574272
 C    1.683048    1.765178   -1.301577
 C    0.406433    1.350766   -1.544069
 C   -0.156225    0.254618   -0.834899
 C    0.590065   -0.415369    0.121495
 C   -1.552256   -0.228216   -1.111815
 C   -2.235571   -0.736047    0.170576
 C   -1.448152   -1.949060    0.641127
 C    0.002906   -1.542818    0.963081
 C   -2.604281    0.664117   -1.780778
 C   -3.915008   -0.122655   -1.564163
 C   -3.636942   -1.034949   -0.361113
 C   -2.363594    0.329727    1.265575
 O    5.859523    1.318090    1.059148
 O   -4.408134   -1.842039    0.102731
 H    4.236428    2.359987   -0.626783
 H    2.382622   -1.476308    1.906636
 H    4.672729   -0.728340    2.315754
 H    2.104129    2.606692   -1.846089
 H   -0.194536    1.867244   -2.288253
 H   -1.468097   -1.120533   -1.753203
 H   -1.934206   -2.395963    1.515865
 H   -1.460913   -2.709614   -0.150447
 H    0.050097   -1.228423    2.016856
 H    0.647163   -2.428903    0.893295
 H   -2.396008    0.840776   -2.841350
 H   -2.641165    1.641709   -1.285045
 H   -4.791179    0.508677   -1.374897
 H   -4.157934   -0.761758   -2.420478
 H   -2.841917   -0.103849    2.151087
 H   -2.983313    1.169043    0.933476
 H   -1.390742    0.734221    1.561501
 H    6.273891    0.772997    1.738416
