38 
1ogz_ligand_aiqm1.xyz
 C    4.580550    0.876029    0.838824
 C    3.817271    1.514239   -0.103697
 C    2.485706    1.097704   -0.343273
 C    1.926960    0.013600    0.386292
 C    2.753456   -0.615885    1.356981
 C    4.041434   -0.201072    1.579097
 C    1.688825    1.760258   -1.307389
 C    0.402163    1.356429   -1.539289
 C   -0.161504    0.265993   -0.825646
 C    0.581646   -0.404871    0.130844
 C   -1.551676   -0.225707   -1.115359
 C   -2.229340   -0.744338    0.156172
 C   -1.441011   -1.957074    0.636928
 C    0.006288   -1.543061    0.969491
 C   -2.596492    0.670511   -1.786534
 C   -3.908726   -0.112081   -1.554212
 C   -3.640021   -1.027502   -0.353096
 C   -2.368372    0.305335    1.276997
 O    5.861649    1.307920    1.039908
 O   -4.414225   -1.837864    0.090534
 H    4.238932    2.339778   -0.663862
 H    2.367999   -1.440820    1.938656
 H    4.654050   -0.697523    2.324965
 H    2.110769    2.592507   -1.857363
 H   -0.199439    1.876102   -2.275040
 H   -1.437963   -1.111948   -1.764800
 H   -1.919587   -2.404377    1.510926
 H   -1.439633   -2.719594   -0.149283
 H    0.060680   -1.236674    2.019953
 H    0.654215   -2.419573    0.882065
 H   -2.397367    0.821298   -2.847556
 H   -2.630753    1.653590   -1.311338
 H   -4.770269    0.525956   -1.355930
 H   -4.164602   -0.737539   -2.411916
 H   -2.963467   -0.116496    2.093770
 H   -2.864145    1.214371    0.925747
 H   -1.398272    0.593983    1.684280
 H    6.264671    0.768593    1.723252
