33 
1oiq_ligand_ani-2x.xyz
 O   11.073289   -9.730454   10.561511
 C   10.542973  -10.560832   11.270529
 C    9.362838  -11.400920   10.816596
 N   10.941408  -10.839872   12.566252
 C   11.973351  -10.245178   13.280612
 N   12.827028   -9.478562   12.619460
 N   11.982591  -10.527268   14.587143
 C   12.957737   -9.937768   15.277793
 C   13.912555   -9.107786   14.697957
 C   13.820969   -8.905635   13.315559
 C   14.787974   -8.074584   12.586720
 N   14.541571   -7.447181   11.357852
 C   15.723491   -6.807315   11.013850
 N   16.669847   -7.004663   11.923103
 C   16.112169   -7.772982   12.880729
 C   16.944125   -8.202482   14.058015
 C   15.774999   -6.068739    9.803845
 C   14.664243   -6.003854    9.018901
 C   13.462586   -6.667363    9.408362
 C   13.411946   -7.373514   10.569367
 H    8.483741  -11.197076   11.436382
 H    9.140135  -11.150691    9.780197
 H    9.595228  -12.467454   10.895671
 H   10.379694  -11.465854   13.124234
 H   12.978035  -10.140160   16.346347
 H   14.670838   -8.635154   15.308891
 H   16.710628   -7.616283   14.956497
 H   16.788245   -9.259559   14.299236
 H   17.998704   -8.041738   13.824025
 H   16.708483   -5.580756    9.552565
 H   14.685816   -5.443227    8.087481
 H   12.582229   -6.612583    8.776648
 H   12.534135   -7.897014   10.917468
