24 
1oko_ligand_ani-2x.xyz
 C    0.915206    1.257254    0.174006
 C    1.539134   -0.095979    0.480821
 C    0.971035   -1.170124   -0.429971
 C   -0.552622   -1.171998   -0.333051
 C   -1.086736    0.238596   -0.575908
 C   -2.588815    0.358819   -0.369506
 O    1.417581    2.174689    1.098871
 O    2.940360   -0.088286    0.294137
 O    1.419582   -2.450257   -0.027804
 O   -0.946242   -1.588171    0.953808
 O   -0.487977    1.186967    0.310394
 O   -3.025815    1.668309   -0.649401
 H    1.160104    1.567263   -0.861266
 H    1.273331   -0.353099    1.516205
 H    1.275072   -0.961567   -1.469149
 H   -0.961289   -1.845589   -1.106711
 H   -0.852088    0.539724   -1.612490
 H   -2.837920    0.046259    0.654222
 H   -3.109546   -0.307202   -1.066042
 H    0.775525    2.893883    1.153420
 H    3.297084    0.575925    0.898899
 H    2.367930   -2.363984    0.150752
 H   -0.400257   -2.363656    1.154376
 H   -2.502940    2.252221   -0.083413
