34 
1om1_ligand_xtb.xyz
 O   22.809032    5.636954   14.983049
 C   23.756236    5.627201   15.930062
 O   24.057693    4.615173   16.499073
 C   24.339005    6.981966   16.288575
 C   23.395027    7.594780   17.281255
 C   23.093983    7.087869   18.519186
 N   23.590279    5.968166   19.127197
 C   23.322822    5.608189   20.424229
 O   23.873487    4.661851   20.943308
 C   22.291105    6.437436   21.075171
 C   21.857362    6.058849   22.343169
 C   20.821205    6.723916   22.962423
 C   20.181168    7.752904   22.287019
 C   20.601026    8.146662   21.031468
 C   21.688490    7.525165   20.418864
 N   22.187045    7.900999   19.178733
 C   21.921579    8.987005   18.355411
 C   22.643942    8.798222   17.147547
 C   22.563248    9.738924   16.122570
 C   21.791342   10.862430   16.311791
 C   21.126666   11.070054   17.517903
 C   21.189118   10.150904   18.547414
 H   22.630993    6.525466   14.646211
 H   24.434587    7.625329   15.413543
 H   25.325850    6.836208   16.733845
 H   24.181042    5.351763   18.576720
 H   22.354156    5.221673   22.809382
 H   20.494163    6.431889   23.947906
 H   19.337814    8.252943   22.739425
 H   20.056271    8.918107   20.518306
 H   23.110720    9.597249   15.201952
 H   21.714524   11.602005   15.529233
 H   20.556477   11.975606   17.658129
 H   20.696644   10.379542   19.476829
