66 
1os0_ligand_aiqm1.xyz
 N   32.240161   41.524591   -7.445966
 C   33.380361   40.645413   -7.254683
 P   34.225836   41.369627   -5.764217
 O   34.953058   42.610776   -6.045501
 O   33.029311   41.600947   -4.704281
 C   34.359043   40.754462   -8.421728
 C   33.760448   40.190814   -9.677220
 C   33.740889   38.817324   -9.891092
 C   33.165552   41.023176  -10.617591
 C   33.142572   38.287557  -11.019940
 C   32.564214   40.494392  -11.747125
 C   32.549727   39.125368  -11.949869
 C   35.179228   40.009051   -4.968284
 C   36.338009   40.576904   -4.149471
 C   35.826383   41.465344   -3.009181
 C   36.882665   41.825186   -1.988454
 C   38.185039   42.161841   -2.373327
 C   36.589993   41.757797   -0.621258
 C   39.167844   42.402287   -1.414834
 C   37.571819   42.000561    0.339098
 C   38.868530   42.316111   -0.056175
 C   37.216102   39.406531   -3.714475
 O   38.114277   38.985762   -4.426232
 N   36.909369   38.821921   -2.526587
 C   37.850610   37.902956   -1.916865
 C   37.144628   37.252925   -0.749687
 O   36.312976   37.808752   -0.075938
 C   39.105289   38.660044   -1.416192
 C   40.117850   37.777779   -0.742300
 C   40.857384   36.849809   -1.481608
 C   40.328016   37.855557    0.636141
 C   41.777707   36.013008   -0.855184
 C   41.249039   37.019928    1.265709
 C   41.973632   36.093974    0.520716
 O   37.576396   36.004653   -0.527252
 H   31.906473   41.480255   -8.403910
 H   31.478048   41.256301   -6.833261
 H   33.102278   39.591608   -7.095792
 H   32.732936   42.507410   -4.816581
 H   34.604639   41.810203   -8.543219
 H   35.273796   40.218086   -8.157615
 H   34.205184   38.159973   -9.169087
 H   33.184688   42.093448  -10.467132
 H   33.139159   37.218596  -11.175770
 H   32.107301   41.153487  -12.470857
 H   32.082023   38.712158  -12.831159
 H   35.574022   39.365137   -5.757180
 H   34.500751   39.423201   -4.347161
 H   36.943549   41.176358   -4.834101
 H   35.416682   42.371091   -3.462067
 H   34.990378   40.971042   -2.505067
 H   38.436614   42.227568   -3.424966
 H   35.585764   41.499440   -0.300977
 H   40.174082   42.645252   -1.731430
 H   37.321330   41.930327    1.389633
 H   39.638321   42.492268    0.682942
 H   36.298576   39.286067   -1.875264
 H   38.146064   37.147424   -2.638704
 H   39.537954   39.135638   -2.297396
 H   38.789211   39.459070   -0.740591
 H   40.709710   36.783731   -2.553499
 H   39.767455   38.580884    1.217978
 H   42.339196   35.298519   -1.443909
 H   41.397820   37.094510    2.335859
 H   42.687051   35.442672    1.008049
 H   37.140990   35.695148    0.278087
