17 
1oss_ligand_xtb.xyz
 C   44.831360  -22.931361   62.405120
 C   44.859140  -21.776250   63.180569
 C   43.677896  -21.195894   63.607376
 C   42.460545  -21.761602   63.268485
 C   42.426028  -22.904945   62.486318
 C   43.603266  -23.484903   62.054240
 C   46.070243  -23.580048   61.926603
 N   46.029506  -24.225862   60.836711
 N   47.192095  -23.386400   62.696007
 H   45.801371  -21.309252   63.429823
 H   43.708169  -20.296123   64.204906
 H   41.540872  -21.307667   63.607648
 H   41.477366  -23.343181   62.213002
 H   43.599483  -24.369227   61.437310
 H   46.914508  -24.644778   60.560065
 H   48.011683  -23.928841   62.474385
 H   47.091569  -23.110966   63.657631
