17 
1oss_ligand_aiqm1.xyz
 C   44.822922  -22.935020   62.391734
 C   44.865597  -21.790457   63.190005
 C   43.684343  -21.201409   63.630345
 C   42.455468  -21.755535   63.280808
 C   42.410506  -22.892474   62.475940
 C   43.587495  -23.477690   62.029289
 C   46.075591  -23.584072   61.908677
 N   46.039910  -24.320668   60.863965
 N   47.212389  -23.279547   62.648093
 H   45.819388  -21.341599   63.435968
 H   43.723121  -20.307717   64.239604
 H   41.537629  -21.297588   63.625859
 H   41.455690  -23.315711   62.192322
 H   43.572774  -24.348705   61.390130
 H   46.957966  -24.711260   60.657672
 H   48.005187  -23.866415   62.452396
 H   47.069123  -23.131433   63.633392
