51 
1owi_ligand_xtb.xyz
 N   17.600775   19.911656   33.281934
 C   18.759325   19.804857   33.794358
 N   19.114369   20.660341   34.798314
 C   19.768405   18.766736   33.454468
 C   20.531881   18.174202   34.431265
 C   21.456806   17.160771   34.115244
 C   22.235580   16.520715   35.104010
 C   23.127038   15.545822   34.765496
 C   23.304154   15.166328   33.417910
 C   22.544764   15.760620   32.439083
 C   21.608173   16.762553   32.760454
 C   20.812807   17.386159   31.774823
 C   19.913870   18.355297   32.112803
 C   24.287448   14.074625   33.141496
 O   24.488834   13.182090   33.938609
 N   24.921615   14.205365   31.939982
 C   25.878393   13.372755   31.352490
 C   26.300460   12.177243   31.928465
 C   27.245955   11.415188   31.271668
 C   27.782260   11.806571   30.056325
 C   27.365155   13.001299   29.477962
 O   27.812631   13.510507   28.300339
 C   28.798471   12.810463   27.558522
 C   28.226256   11.552653   26.865561
 C   28.415966   11.774862   25.361978
 C   28.423648   13.293129   25.215714
 C   29.245113   13.740946   26.420639
 C   26.411842   13.775356   30.135054
 H   17.371720   19.191246   32.605400
 H   18.477089   21.425329   34.949666
 H   20.090715   20.844618   34.951718
 H   20.411650   18.465552   35.465017
 H   22.107192   16.813682   36.135933
 H   23.717400   15.038686   35.513368
 H   22.620246   15.451418   31.404861
 H   20.927615   17.082096   30.744071
 H   19.311305   18.832671   31.352665
 H   24.709597   15.035173   31.403509
 H   25.891725   11.860805   32.871938
 H   27.575113   10.487177   31.714713
 H   28.513544   11.179393   29.573653
 H   29.639445   12.568722   28.221551
 H   27.164890   11.479590   27.107057
 H   28.714714   10.639409   27.202970
 H   27.632564   11.297860   24.775377
 H   29.378087   11.370497   25.042781
 H   27.407913   13.680802   25.297771
 H   28.851402   13.624603   24.271101
 H   30.308289   13.598944   26.226168
 H   29.071063   14.780081   26.692085
 H   26.100025   14.700136   29.671862
