53 
1owj_ligand_aiqm1.xyz
 N   16.903764   18.825872   34.041048
 C   18.197475   19.204723   34.350342
 N   18.391460   20.309687   34.965414
 C   19.253809   18.275738   33.857495
 C   20.426889   18.109145   34.557492
 C   21.436228   17.225540   34.102501
 C   22.638125   17.017846   34.832220
 C   23.593311   16.157351   34.366360
 C   23.412396   15.469824   33.138339
 C   22.251472   15.645887   32.423027
 C   21.235607   16.518710   32.887347
 C   20.023000   16.708193   32.172177
 C   19.058188   17.555698   32.647100
 C   24.514140   14.547362   32.713497
 O   25.265911   14.038074   33.524921
 N   24.602448   14.353832   31.361304
 C   25.559101   13.598834   30.648383
 C   26.343051   12.615732   31.255265
 C   27.254738   11.889321   30.492452
 C   27.385178   12.129391   29.116681
 C   26.598719   13.111308   28.523283
 C   25.688966   13.842593   29.280567
 C   28.379557   11.295001   28.358540
 C   28.380351    9.898999   28.956445
 N   28.655541    9.898338   30.396173
 C   28.115872   10.828274   31.094404
 C   28.326273   10.830934   32.594664
 C   29.729775   10.355920   32.967290
 C   27.265672    9.947165   33.263710
 H   16.211041   19.397094   34.497631
 H   16.710722   17.838345   34.053310
 H   19.383297   20.518387   35.035248
 H   20.587745   18.644000   35.486987
 H   22.783675   17.541885   35.769821
 H   24.501145   15.968942   34.921469
 H   22.064366   15.094265   31.506670
 H   19.868706   16.171612   31.242726
 H   18.139612   17.707193   32.095733
 H   24.020703   14.949924   30.800959
 H   26.242522   12.431833   32.312270
 H   26.683677   13.306298   27.460619
 H   25.077676   14.602150   28.803095
 H   29.381344   11.733530   28.442451
 H   28.128108   11.264208   27.297765
 H   29.119971    9.263195   28.471077
 H   27.398440    9.438984   28.805721
 H   28.202191   11.852776   32.958835
 H   29.884700    9.334161   32.624095
 H   30.495119   10.986662   32.512730
 H   29.855051   10.383215   34.050281
 H   26.253214   10.283839   33.033407
 H   27.372448    8.915478   32.919339
 H   27.391911    9.963332   34.347320
