53 
1owj_ligand_xtb.xyz
 N   17.067210   19.156505   33.930809
 C   18.366238   19.422155   34.262337
 N   18.632216   20.506261   34.870140
 C   19.359146   18.417496   33.796430
 C   20.450007   18.108429   34.572044
 C   21.410101   17.173861   34.140772
 C   22.523625   16.820069   34.933327
 C   23.435926   15.910559   34.485723
 C   23.297568   15.318025   33.212603
 C   22.213216   15.632361   32.429408
 C   21.247755   16.557655   32.871601
 C   20.122396   16.896136   32.089175
 C   19.200386   17.795893   32.539313
 C   24.331763   14.318748   32.808818
 O   24.878590   13.600376   33.620462
 N   24.595035   14.319610   31.469344
 C   25.487275   13.519760   30.747321
 C   26.197345   12.476742   31.329916
 C   27.074887   11.714308   30.568311
 C   27.223348   11.982489   29.201681
 C   26.509612   13.021479   28.628336
 C   25.649875   13.789314   29.389884
 C   28.174283   11.128859   28.416772
 C   28.120450    9.701412   28.964663
 N   28.294933    9.644591   30.390497
 C   27.834238   10.572668   31.121142
 C   28.084279   10.510092   32.605633
 C   28.994196   11.675168   33.008602
 C   28.708157    9.178331   33.008354
 H   16.391023   19.776206   34.347283
 H   16.788613   18.196968   33.815963
 H   19.622269   20.679466   35.007239
 H   20.574001   18.572881   35.541098
 H   22.636685   17.279286   35.904553
 H   24.283147   15.620301   35.088170
 H   22.054896   15.152918   31.472180
 H   20.002679   16.428791   31.121814
 H   18.349213   18.060711   31.929536
 H   24.125366   15.023566   30.916777
 H   26.048896   12.270888   32.375468
 H   26.624394   13.231303   27.574470
 H   25.096673   14.597995   28.931741
 H   29.191389   11.518341   28.538868
 H   27.930165   11.145631   27.353712
 H   28.906385    9.083830   28.520386
 H   27.154717    9.240050   28.718307
 H   27.126821   10.619559   33.125504
 H   29.951484   11.593166   32.497647
 H   28.543678   12.630978   32.752092
 H   29.172108   11.654328   34.081139
 H   28.058838    8.356094   32.722385
 H   29.660690    9.044921   32.504257
 H   28.866213    9.149074   34.083992
