56 
1oxn_ligand_xtb.xyz
 N   -0.520399   -1.130858   -2.421091
 C   -1.845754   -0.647065   -1.957791
 C   -1.523619    0.694474   -1.254401
 O   -0.673039    1.410911   -1.757712
 C   -2.488319   -1.709863   -1.085914
 N   -2.166305    0.947504   -0.121624
 C   -1.827713    2.085696    0.717108
 C   -0.428123    1.843519    1.324610
 O    0.441175    2.677767    1.323447
 C   -2.859249    2.277075    1.828450
 C   -4.281613    2.558686    1.326934
 C   -5.100588    1.317375    1.072433
 O   -4.649251    0.237765    0.748226
 O   -6.388888    1.531262    1.234643
 N   -0.283840    0.608205    1.870051
 C    1.046754    0.068752    2.089490
 C    1.579705   -0.298691    0.697799
 O    0.816159   -0.814851   -0.117454
 C    0.995250   -1.146709    3.004918
 N    2.848427    0.014262    0.441308
 C    3.427194    0.044332   -0.902203
 C    2.319027    0.567737   -1.821827
 O    1.835252   -0.020795   -2.760787
 C    4.093115   -1.273083   -1.338621
 C    5.297568   -1.551348   -0.441085
 C    3.141972   -2.465556   -1.338930
 O    1.947759    1.758935   -1.422450
 H   -0.575238   -1.961588   -3.011494
 H    0.073289   -1.309314   -1.572943
 H    0.021753   -0.375854   -2.904139
 H   -2.468823   -0.430593   -2.832563
 H   -2.612880   -2.631209   -1.650940
 H   -1.863607   -1.917291   -0.220514
 H   -3.473118   -1.403371   -0.746117
 H   -2.979518    0.403797    0.171539
 H   -1.748628    2.989160    0.101031
 H   -2.528334    3.122104    2.432392
 H   -2.870293    1.393591    2.470325
 H   -4.829530    3.163082    2.050160
 H   -4.250718    3.127177    0.393599
 H   -6.926114    0.739603    1.062901
 H   -1.007061   -0.076811    1.705539
 H    1.651060    0.868541    2.525965
 H    1.999296   -1.513127    3.199935
 H    0.418554   -1.945813    2.543175
 H    0.533557   -0.879167    3.951325
 H    3.387712    0.451571    1.172118
 H    4.195742    0.824754   -0.888598
 H    4.442028   -1.112019   -2.363380
 H    5.990584   -0.713628   -0.443395
 H    4.978549   -1.739404    0.581704
 H    5.829181   -2.429455   -0.796027
 H    3.687659   -3.361955   -1.620524
 H    2.344055   -2.310708   -2.058283
 H    2.712822   -2.624201   -0.353075
 H    1.115263    2.066188   -1.837542
