56 
1oxn_ligand_ani-2x.xyz
 N   -0.583221   -1.241934   -2.169215
 C   -1.882965   -0.511105   -2.023642
 C   -1.611857    0.703315   -1.118066
 O   -0.769352    1.532170   -1.456397
 C   -2.977209   -1.450739   -1.539449
 N   -2.281479    0.801291    0.055200
 C   -1.980053    1.882538    0.977758
 C   -0.618363    1.721567    1.680937
 O   -0.016161    2.704101    2.078870
 C   -3.064923    2.046800    2.048685
 C   -4.403755    2.583575    1.537551
 C   -5.279887    1.573670    0.833666
 O   -5.042844    0.394215    0.668079
 O   -6.419924    2.131122    0.399884
 N   -0.193293    0.437797    1.889907
 C    1.211133    0.141790    2.088374
 C    1.756118   -0.372326    0.751517
 O    1.054505   -1.063581    0.019560
 C    1.420174   -0.902905    3.181221
 N    3.027440   -0.028523    0.413375
 C    3.506310   -0.066516   -0.975701
 C    2.364538    0.345386   -1.912892
 O    1.944153   -0.311455   -2.845019
 C    4.196036   -1.378656   -1.389607
 C    5.543882   -1.500697   -0.678239
 C    3.356409   -2.631567   -1.152452
 O    1.892886    1.540789   -1.580301
 H   -0.693286   -2.095464   -2.743882
 H   -0.202128   -1.499677   -1.236931
 H    0.127784   -0.637183   -2.626800
 H   -2.149801   -0.091309   -2.996937
 H   -3.139266   -2.247129   -2.272389
 H   -2.709351   -1.915312   -0.583765
 H   -3.925645   -0.923275   -1.408309
 H   -3.129691    0.272098    0.226941
 H   -1.883304    2.816384    0.412289
 H   -2.673654    2.751361    2.791237
 H   -3.219405    1.091426    2.564477
 H   -4.995918    2.963715    2.378142
 H   -4.263675    3.435333    0.861077
 H   -6.930953    1.418784   -0.020106
 H   -0.692794   -0.271911    1.365981
 H    1.701144    1.081850    2.365450
 H    2.488095   -1.105893    3.315653
 H    0.920039   -1.843465    2.925844
 H    1.010313   -0.537957    4.126358
 H    3.490558    0.626493    1.024966
 H    4.248962    0.735865   -1.057218
 H    4.366742   -1.279669   -2.469380
 H    6.180285   -0.627797   -0.861510
 H    5.400085   -1.600951    0.403989
 H    6.083368   -2.387835   -1.027057
 H    3.900569   -3.515620   -1.501803
 H    2.406048   -2.577866   -1.687718
 H    3.140625   -2.763454   -0.087017
 H    0.995854    1.647835   -1.965491
