56 
1oxn_ligand_aiqm1.xyz
 N   -0.566771   -1.183758   -2.361204
 C   -1.901235   -0.665093   -1.904284
 C   -1.572221    0.619569   -1.126440
 O   -0.636648    1.297938   -1.528759
 C   -2.636817   -1.737800   -1.130332
 N   -2.285088    0.897560   -0.039688
 C   -1.901718    2.024594    0.819336
 C   -0.552123    1.777944    1.525197
 O    0.167623    2.710256    1.812483
 C   -2.979470    2.300257    1.868611
 C   -4.353281    2.676965    1.304540
 C   -5.249752    1.516439    0.951246
 O   -4.888838    0.377289    0.722523
 O   -6.526607    1.884443    0.886630
 N   -0.281525    0.471569    1.844818
 C    1.089974    0.045187    2.077225
 C    1.667735   -0.341521    0.714955
 O    0.942720   -0.909986   -0.111228
 C    1.144950   -1.143809    3.024504
 N    2.946923   -0.034672    0.467844
 C    3.501418    0.007371   -0.893643
 C    2.412628    0.565043   -1.813371
 O    1.942259    0.008787   -2.777503
 C    4.161370   -1.298088   -1.367240
 C    5.442860   -1.532890   -0.569761
 C    3.264890   -2.529603   -1.295254
 O    2.022043    1.760065   -1.384701
 H   -0.661704   -2.013619   -2.938315
 H    0.019474   -1.371345   -1.532988
 H   -0.061230   -0.455902   -2.876138
 H   -2.468134   -0.379329   -2.786926
 H   -2.802267   -2.617411   -1.748845
 H   -2.089368   -2.039868   -0.239888
 H   -3.612623   -1.377510   -0.822863
 H   -3.138395    0.399213    0.187882
 H   -1.742173    2.908300    0.200005
 H   -2.621310    3.131690    2.472696
 H   -3.062101    1.435216    2.532447
 H   -4.896227    3.285476    2.022742
 H   -4.254815    3.290431    0.404151
 H   -7.047476    1.106307    0.647900
 H   -0.832423   -0.213361    1.349826
 H    1.633338    0.891526    2.488214
 H    2.179468   -1.425481    3.221140
 H    0.628534   -2.002070    2.592246
 H    0.668215   -0.885075    3.966073
 H    3.448135    0.465522    1.182785
 H    4.275273    0.774488   -0.866723
 H    4.425309   -1.121363   -2.411608
 H    6.101529   -0.664663   -0.596461
 H    5.216401   -1.760800    0.474330
 H    5.986996   -2.379400   -0.981338
 H    3.818174   -3.401189   -1.640478
 H    2.376431   -2.420497   -1.919360
 H    2.944385   -2.718304   -0.266671
 H    1.193182    1.994462   -1.830639
