63 
1oxq_ligand_dft.xyz
 N   -0.004050   -2.747318    1.469038
 C   -1.481622   -2.993475    1.305427
 C   -1.817526   -2.123883    0.078432
 O   -1.264241   -2.400449   -0.982315
 C   -2.205796   -2.701573    2.608321
 N   -2.585488   -1.054594    0.294525
 C   -2.441805    0.194352   -0.449754
 C   -2.209187    1.218215    0.678976
 O   -2.956616    1.173841    1.651233
 C   -3.684907    0.553966   -1.281829
 C   -3.484587    1.902636   -1.978385
 C   -3.988083   -0.551894   -2.292494
 N   -1.213912    2.126887    0.584269
 C   -0.104274    2.089023   -0.347016
 C    0.778412    0.846513   -0.114654
 O    0.483717   -0.030631    0.701234
 C    0.635410    3.407197   -0.045115
 C    0.441984    3.561101    1.466056
 C   -0.987365    3.067233    1.694335
 N    1.866610    0.773470   -0.899722
 C    2.739118   -0.397036   -0.942988
 C    1.836287   -1.622839   -1.117936
 O    1.893664   -2.625843   -0.428323
 C    3.700639   -0.508975    0.256047
 C    4.292802    0.857655    0.642937
 C    4.790693   -1.546235   -0.036567
 C    5.088590    1.568411   -0.452805
 O    0.963903   -1.445289   -2.092737
 H    0.380438   -3.227561    2.285350
 H    0.198325   -1.732720    1.538970
 H    0.536585   -3.034749    0.625187
 H   -1.588750   -4.041534    1.017819
 H   -2.031351   -1.677501    2.955968
 H   -3.281341   -2.847608    2.475976
 H   -1.883478   -3.392450    3.393157
 H   -3.004406   -0.900083    1.205697
 H   -1.584050    0.072675   -1.115661
 H   -4.523411    0.642105   -0.579829
 H   -4.377357    2.169073   -2.550818
 H   -3.294353    2.712588   -1.266432
 H   -2.646068    1.856443   -2.685662
 H   -4.891634   -0.309050   -2.859503
 H   -4.148380   -1.515494   -1.800333
 H   -3.163417   -0.669732   -3.005260
 H   -0.455486    2.058489   -1.384760
 H    0.141163    4.221581   -0.583251
 H    1.686673    3.391131   -0.343144
 H    0.587084    4.587833    1.806374
 H    1.153530    2.924554    2.003721
 H   -1.722252    3.876324    1.637515
 H   -1.126542    2.555218    2.648206
 H    2.007774    1.490797   -1.594984
 H    3.322226   -0.301146   -1.865928
 H    3.111494   -0.861806    1.110329
 H    4.944691    0.697408    1.509308
 H    3.486910    1.515597    0.990339
 H    4.365195   -2.540431   -0.189014
 H    5.367831   -1.282910   -0.930159
 H    5.490472   -1.602831    0.802610
 H    5.936679    0.968785   -0.796592
 H    4.472729    1.803542   -1.330064
 H    5.489686    2.514646   -0.078729
 H    0.244546   -2.105691   -2.001823
