63 
1oxq_ligand_aiqm1.xyz
 N    2.096298    0.593877    2.451872
 C    3.327153    0.573282    1.562628
 C    2.740500    0.739474    0.154033
 O    2.124138    1.773343   -0.058506
 C    4.145536   -0.670776    1.819900
 N    2.850372   -0.268815   -0.698690
 C    1.841606   -0.450546   -1.754895
 C    1.362483   -1.892621   -1.536868
 O    2.197734   -2.778900   -1.425462
 C    2.395943   -0.217448   -3.169270
 C    1.279018   -0.399996   -4.193397
 C    2.990998    1.181959   -3.281944
 N    0.038772   -2.117085   -1.429902
 C   -0.994739   -1.106047   -1.344812
 C   -0.903025   -0.245719   -0.069225
 O    0.005539   -0.334782    0.760532
 C   -2.281282   -1.947233   -1.423922
 C   -1.890163   -3.275701   -0.776629
 C   -0.463350   -3.494455   -1.270570
 N   -1.879071    0.672947    0.028393
 C   -1.925758    1.699072    1.072614
 C   -0.573109    2.420846    1.066083
 O    0.183209    2.470767    2.013565
 C   -2.301421    1.155584    2.461736
 C   -3.527041    0.229111    2.399437
 C   -2.536069    2.315909    3.430880
 C   -4.790222    0.864406    1.820408
 O   -0.306240    2.949471   -0.118495
 H    2.343296    0.461540    3.427969
 H    1.443639   -0.137695    2.150140
 H    1.588416    1.487413    2.324690
 H    3.900574    1.464556    1.787728
 H    3.582565   -1.582468    1.628484
 H    5.012865   -0.669707    1.168598
 H    4.509843   -0.699043    2.844096
 H    3.330755   -1.120380   -0.444529
 H    1.050695    0.273236   -1.572675
 H    3.175207   -0.960322   -3.348573
 H    1.664828   -0.240389   -5.197304
 H    0.835812   -1.397535   -4.157283
 H    0.488106    0.337935   -4.019319
 H    3.329343    1.364881   -4.300189
 H    3.839164    1.323196   -2.609855
 H    2.236884    1.933629   -3.034380
 H   -0.933246   -0.405898   -2.178754
 H   -2.522302   -2.095286   -2.474055
 H   -3.134562   -1.473000   -0.941543
 H   -2.552883   -4.084481   -1.067764
 H   -1.907047   -3.187634    0.310367
 H   -0.429266   -4.015059   -2.227444
 H    0.172928   -4.031963   -0.571486
 H   -2.549311    0.726564   -0.719488
 H   -2.667483    2.429824    0.755295
 H   -1.452267    0.560669    2.814678
 H   -3.736954   -0.101779    3.417979
 H   -3.278793   -0.673664    1.830793
 H   -1.634947    2.911799    3.570311
 H   -3.325661    2.974667    3.066701
 H   -2.848501    1.934479    4.401567
 H   -5.077513    1.758662    2.371330
 H   -4.673862    1.147476    0.769790
 H   -5.623575    0.166865    1.876884
 H    0.635543    3.178592   -0.141951
