21 
1oxr_ligand_xtb.xyz
 O   13.780028   16.542269    1.020141
 C   13.394351   15.456989    1.707564
 O   14.189362   14.757793    2.268427
 C   11.925209   15.168184    1.672612
 C   11.250118   15.151791    0.454609
 C    9.909431   14.820135    0.395739
 C    9.222460   14.518051    1.560742
 C    9.874213   14.545115    2.779565
 C   11.227670   14.860267    2.845032
 O   11.823445   14.994267    4.073882
 C   12.438463   13.973339    4.734732
 O   12.835423   14.175914    5.841632
 C   12.562388   12.677149    3.987563
 H   13.035044   17.032875    0.647425
 H   11.790774   15.371443   -0.455895
 H    9.401375   14.800004   -0.555719
 H    8.174375   14.264382    1.520803
 H    9.347355   14.329870    3.696758
 H   13.295429   12.818522    3.193479
 H   12.913632   11.907342    4.667646
 H   11.612655   12.385401    3.543662
