62 
1oy7_ligand_ani-2x.xyz
 N   -0.184439    2.396537   -0.818794
 C   -1.656317    2.265868   -0.554813
 C   -1.930563    0.761170   -0.409612
 O   -1.982732    0.058082   -1.423726
 C   -2.465408    2.864466   -1.700116
 N   -2.045037    0.283025    0.849167
 C   -2.117394   -1.139150    1.225665
 C   -0.753761   -1.803498    0.971392
 O   -0.022005   -2.134538    1.900906
 C   -3.313194   -1.863131    0.592362
 C   -4.634770   -1.492645    1.284532
 C   -4.837512    0.002651    1.344907
 O   -5.121354    0.525513    0.133381
 O   -4.759346    0.678807    2.341623
 N   -0.405482   -1.942816   -0.334370
 C    1.011700   -2.000731   -0.677041
 C    1.634133   -0.621915   -0.336359
 O    1.597819    0.328811   -1.114854
 C    1.243090   -2.475887   -2.118421
 C    0.479017   -1.675937   -3.176369
 C    0.907593   -3.965355   -2.222121
 N    2.168658   -0.578137    0.912740
 C    2.708866    0.591130    1.593320
 C    1.579138    1.367159    2.272434
 O    0.541383    1.724127    1.748813
 C    3.593127    1.508873    0.721520
 C    4.136830    2.665614    1.563154
 C    4.734092    0.710897    0.094421
 O    1.860317    1.654403    3.549709
 H    0.314860    2.299666    0.086522
 H    0.155995    1.623391   -1.426148
 H    0.053902    3.310828   -1.239196
 H   -1.872977    2.773077    0.392144
 H   -2.236604    2.337907   -2.629078
 H   -3.537632    2.763144   -1.511590
 H   -2.243522    3.930078   -1.815889
 H   -1.787234    0.910153    1.596915
 H   -2.229819   -1.144785    2.312807
 H   -3.160954   -2.944841    0.681764
 H   -3.364830   -1.616585   -0.469748
 H   -4.641972   -1.856093    2.315813
 H   -5.475240   -1.949667    0.752725
 H   -5.219295    1.480285    0.280265
 H   -1.008288   -1.446679   -0.987201
 H    1.464206   -2.735909   -0.004370
 H    2.317815   -2.352892   -2.316054
 H    0.733842   -2.051818   -4.174071
 H   -0.608514   -1.774590   -3.061917
 H    0.735389   -0.615214   -3.133293
 H    1.120222   -4.339458   -3.229232
 H    1.495670   -4.558892   -1.512843
 H   -0.153615   -4.140351   -2.012506
 H    1.813914   -1.301069    1.534125
 H    3.336183    0.210271    2.406229
 H    2.975164    1.917171   -0.084542
 H    3.336358    3.317391    1.925910
 H    4.684929    2.287099    2.434273
 H    4.826491    3.277097    0.971949
 H    5.359282    0.241426    0.865440
 H    4.363251   -0.075622   -0.568821
 H    5.378247    1.371759   -0.496168
 H    1.108427    2.160928    3.902536
