41 
1oyn_ligand_aiqm1.xyz
 C    1.545911   -0.107122    0.468520
 C    0.367322   -0.672258   -0.028816
 C   -0.399574   -0.043097   -0.996696
 C    0.009708    1.206771   -1.502201
 C    1.171582    1.785375   -1.003942
 C    1.933610    1.135454   -0.027038
 C    2.354134   -0.866108    1.499880
 C    3.018212    0.037246    2.554500
 C    4.407446    0.316283    1.993560
 O    5.183404    1.179843    2.348302
 N    4.616377   -0.586267    0.995440
 C    3.569771   -1.582331    0.859468
 O   -1.520781   -0.669280   -1.463672
 C   -2.770820   -0.026846   -1.107869
 C   -3.868932   -0.984130   -1.527800
 C   -3.863006   -2.063238   -0.434299
 C   -3.340221   -1.354361    0.843524
 C   -2.947635    0.071005    0.404191
 O   -0.790750    1.767367   -2.450461
 C   -0.400271    3.030428   -2.955030
 H    0.012779   -1.636197    0.326690
 H    1.502445    2.747500   -1.367689
 H    2.832085    1.620448    0.329577
 H    1.707249   -1.606802    1.969784
 H    2.493355    0.969468    2.754892
 H    3.145151   -0.491194    3.503883
 H    5.527318   -0.660626    0.576902
 H    3.401464   -1.841324   -0.184475
 H    3.811897   -2.497899    1.411756
 H   -2.820705    0.946593   -1.600110
 H   -3.706437   -1.381802   -2.529526
 H   -4.814240   -0.434585   -1.520892
 H   -4.852204   -2.495783   -0.288073
 H   -3.191252   -2.874110   -0.713907
 H   -4.091337   -1.331623    1.633249
 H   -2.474721   -1.885522    1.239614
 H   -3.761870    0.769983    0.606030
 H   -2.049998    0.442646    0.898830
 H    0.582870    2.982776   -3.428215
 H   -1.145501    3.299122   -3.697452
 H   -0.384033    3.784398   -2.163528
