70 
1oyq_ligand_dft.xyz
 N    7.379089    2.995027   -1.519075
 N    8.045001    3.072111    0.679902
 C    7.413699    2.450722   -0.245639
 C    6.645463    1.182094   -0.088622
 C    5.478968    0.938558   -0.814855
 C    4.753613   -0.236567   -0.656126
 C    5.191732   -1.212543    0.248862
 C    6.369278   -0.975197    0.976416
 C    7.079318    0.199932    0.807861
 N    4.488967   -2.394738    0.475532
 C    3.444894   -2.845785   -0.424905
 N    1.549476   -1.514346   -1.293675
 C    2.166103   -2.070665   -0.282387
 N    1.537935   -1.876872    0.923125
 C    0.421509   -1.108942    0.652167
 C    0.438563   -0.904379   -0.736308
 C   -0.600268   -0.608509    1.453109
 C   -1.613106    0.090393    0.816567
 C   -1.626930    0.310716   -0.578357
 C   -0.585238   -0.187228   -1.355115
 C    1.950917   -2.333053    2.232415
 C   -3.142100    0.813255   -2.639862
 C   -2.420514    2.081735   -2.315914
 C   -2.750359    1.099216   -1.205304
 C   -3.887437    1.457798   -0.292048
 N   -4.781601    0.615780    0.080447
 N   -5.202582    3.288718    0.595020
 C   -3.983858    2.819694    0.300521
 C   -2.813030    3.543578    0.550559
 C   -2.914928    4.795997    1.141517
 C   -4.176662    5.287190    1.454710
 C   -5.281194    4.492216    1.159268
 O   -4.563257   -0.622077   -0.484322
 C   -5.501069   -1.554697    0.000027
 C   -4.902389   -2.950079    0.004094
 O   -5.586822   -3.946214   -0.012329
 O   -3.573360   -2.939933    0.070690
 C   -1.443995   -3.988990    0.168071
 C   -2.935849   -4.226202    0.072372
 H    8.007781    3.780861   -1.624275
 H    7.411002    2.338425   -2.286136
 H    7.872841    2.626607    1.580133
 H    5.116210    1.693416   -1.506223
 H    3.843711   -0.378889   -1.228962
 H    6.726949   -1.726364    1.677033
 H    7.999743    0.351762    1.365405
 H    5.059789   -3.138765    0.847795
 H    3.258038   -3.902143   -0.199653
 H    3.731604   -2.781809   -1.483264
 H   -0.621855   -0.756868    2.528388
 H   -2.430874    0.471395    1.418848
 H   -0.545934   -0.043559   -2.430531
 H    2.473974   -3.286500    2.148074
 H    2.615263   -1.610224    2.713949
 H    1.060974   -2.481297    2.849273
 H   -2.615844    0.011180   -3.147425
 H   -4.198787    0.874149   -2.878988
 H   -2.980197    3.012234   -2.352954
 H   -1.373185    2.174929   -2.588650
 H   -1.846309    3.122328    0.295314
 H   -2.022406    5.376864    1.353886
 H   -4.307673    6.262146    1.912262
 H   -6.286316    4.844285    1.382611
 H   -6.403397   -1.575320   -0.620287
 H   -5.793875   -1.298443    1.024347
 H   -1.092566   -3.372614   -0.664201
 H   -1.195865   -3.470891    1.098459
 H   -0.915572   -4.947561    0.145802
 H   -3.209008   -4.754598   -0.846299
 H   -3.315479   -4.810245    0.916468
