14 
1p28_ligand_dft.xyz
 C    1.182514    1.341797   -0.373784
 C    0.698485    0.116349    0.405469
 O    1.544817   -0.971375    0.177138
 C   -0.735481   -0.253506    0.029039
 C   -1.811112    0.792944    0.171875
 O   -0.967055   -1.374224   -0.380251
 H    2.231252    1.525356   -0.128216
 H    0.605769    2.237973   -0.122342
 H    1.111946    1.159718   -1.450920
 H    0.684852    0.366630    1.481164
 H    0.964618   -1.691430   -0.125858
 H   -1.662244    1.400533    1.069801
 H   -1.774143    1.467744   -0.691602
 H   -2.790583    0.312768    0.197279
