14 
1p28_ligand_ani-2x.xyz
 C   -1.170630    0.971379    0.432378
 C   -0.745002   -0.169410   -0.487796
 O   -1.723864   -1.169667   -0.508014
 C    0.596281   -0.784307   -0.072560
 C    1.801109    0.111021    0.054887
 O    0.653756   -1.981443    0.129657
 H   -2.130186    1.374836    0.098662
 H   -0.434230    1.781314    0.428105
 H   -1.291151    0.603520    1.456721
 H   -0.601609    0.246175   -1.501270
 H   -1.248812   -1.996268   -0.310746
 H    1.875329    0.790511   -0.801183
 H    1.718250    0.724099    0.959430
 H    2.701056   -0.501961    0.121630
