14 
1p28_ligand_aiqm1.xyz
 C   -1.181436    0.946789    0.459905
 C   -0.728206   -0.153462   -0.493722
 O   -1.709370   -1.152478   -0.589252
 C    0.595355   -0.774045   -0.051370
 C    1.812667    0.109119    0.021273
 O    0.632225   -1.957255    0.221458
 H   -2.124477    1.361365    0.108895
 H   -0.446284    1.751450    0.508463
 H   -1.337303    0.540538    1.460457
 H   -0.561655    0.285149   -1.485741
 H   -1.275377   -1.968012   -0.303378
 H    1.902374    0.719157   -0.878534
 H    1.717825    0.791822    0.867081
 H    2.703964   -0.500339    0.154365
