18 
1p7m_ligand_ani-2x.xyz
 N  139.827339   20.430030   -9.555000
 C  140.495163   20.957224   -8.546973
 N  140.661207   22.278935   -8.206886
 C  141.409508   22.540240   -7.101442
 N  141.981908   21.647181   -6.338260
 C  141.839631   20.327215   -6.643786
 N  142.438579   19.426598   -5.841784
 C  141.092206   19.952244   -7.756218
 N  140.787341   18.730861   -8.289931
 C  140.052899   19.089640   -9.330615
 C  140.044136   23.312876   -9.026348
 H  141.523349   23.596890   -6.856671
 H  142.971197   19.749682   -5.050437
 H  142.351606   18.442380   -6.045273
 H  139.628689   18.346890  -10.001131
 H  140.424797   23.256127  -10.049883
 H  138.960359   23.170447   -9.053503
 H  140.273084   24.295140   -8.605659
