67 
1pau_ligand_ani-2x.xyz
 C    6.338772   -0.822236   -0.287189
 O    6.241935   -1.942478   -0.765881
 C    7.657651   -0.097458   -0.106950
 N    5.246245   -0.130906    0.143140
 C    3.909585   -0.617006   -0.091481
 C    2.985287    0.611663   -0.112258
 O    3.364414    1.703625    0.294311
 C    3.508804   -1.644833    0.995912
 C    2.178511   -2.334400    0.813101
 O    1.889304   -2.585824   -0.457584
 O    1.457043   -2.651541    1.743624
 N    1.735290    0.403067   -0.586730
 C    0.677143    1.366795   -0.393055
 C   -0.585848    0.628895    0.077053
 O   -0.635934   -0.593972    0.162280
 C    0.451773    2.237950   -1.652351
 C    1.178199    3.577390   -1.543636
 C    0.480411    4.507774   -0.581485
 O    1.084193    5.699713   -0.489275
 O   -0.520706    4.245580    0.056187
 N   -1.616502    1.439489    0.419990
 C   -2.840155    0.933316    1.023927
 C   -3.498229   -0.012845    0.005254
 O   -4.096172    0.429612   -0.975019
 C   -3.791316    2.070036    1.428334
 C   -3.136818    3.016936    2.437878
 C   -5.088971    1.501470    2.005178
 N   -3.357440   -1.333147    0.269547
 C   -3.471108   -2.355330   -0.770117
 C   -4.930350   -2.564923   -1.207556
 O   -5.337120   -1.679064   -2.208716
 C   -2.864094   -3.664316   -0.244892
 C   -1.404312   -3.511865    0.111158
 O   -1.198596   -3.152953    1.364271
 O   -0.511987   -3.701709   -0.704431
 H    7.631319    0.893877   -0.572975
 H    7.881029    0.037615    0.957037
 H    8.449116   -0.691639   -0.564697
 H    5.307977    0.837999    0.430802
 H    3.881803   -1.130443   -1.058676
 H    3.533141   -1.197202    1.991682
 H    4.270579   -2.431766    0.971810
 H    1.019571   -3.073637   -0.522026
 H    1.442645   -0.530840   -0.843219
 H    0.987962    2.028117    0.424562
 H   -0.616381    2.423230   -1.807317
 H    0.814659    1.682515   -2.522061
 H    2.210294    3.437059   -1.196455
 H    1.230178    4.083890   -2.512888
 H    0.569484    6.226768    0.145158
 H   -1.496948    2.440092    0.301077
 H   -2.570261    0.351685    1.918164
 H   -4.031669    2.627018    0.512912
 H   -3.854153    3.780959    2.757382
 H   -2.818522    2.467178    3.333069
 H   -2.263612    3.537540    2.031673
 H   -5.608357    0.862600    1.284603
 H   -5.769801    2.311520    2.287331
 H   -4.887237    0.907076    2.905978
 H   -2.726520   -1.569108    1.026908
 H   -2.918269   -2.023412   -1.660617
 H   -5.028238   -3.575010   -1.624392
 H   -5.572449   -2.515592   -0.311836
 H   -5.061003   -0.788138   -1.917755
 H   -2.921721   -4.422497   -1.028188
 H   -3.428683   -4.007994    0.626710
 H   -0.228341   -2.995644    1.518332
