25 
1pmv_ligand_ani-2x.xyz
 C   21.944245   31.250954   21.071569
 C   20.876005   30.968581   20.243757
 C   20.507284   29.637062   20.002380
 C   21.240622   28.592515   20.615108
 C   22.315830   28.899621   21.447462
 C   22.668050   30.214079   21.676587
 C   19.111421   27.915137   18.969227
 C   18.015535   27.834682   18.112604
 C   17.519348   26.574368   17.768874
 C   18.168208   25.463569   18.317708
 C   19.271571   25.559441   19.179614
 C   19.762260   26.818394   19.519212
 C   20.911181   27.118236   20.409559
 C   19.392135   29.291284   19.140019
 O   21.558751   26.241766   20.949011
 N   18.535555   30.036233   18.441049
 N   17.716189   29.144611   17.831015
 H   22.228602   32.283279   21.257540
 H   20.305850   31.762936   19.767971
 H   22.860170   28.077898   21.903953
 H   23.507038   30.450202   22.326230
 H   16.668130   26.443882   17.106037
 H   17.794298   24.475371   18.060058
 H   19.746616   24.671287   19.584151
 H   16.975107   29.490611   17.237304
