70 
1pop_ligand_aiqm1.xyz
 C   -1.146516   -2.631624    0.431227
 O   -1.231779   -2.507456    1.654419
 C   -0.764635   -3.954893   -0.190869
 N   -1.423211   -1.645371   -0.442843
 C   -1.800196   -0.275468   -0.120107
 C   -0.617901    0.544366    0.418193
 O   -0.364506    1.659895   -0.040997
 C   -3.006106   -0.137454    0.818542
 C   -4.360201   -0.615350    0.268454
 C   -4.695274    0.009497   -1.084870
 C   -4.487407   -2.139333    0.201307
 N    0.099550   -0.032989    1.391996
 C    1.183099    0.637047    2.099202
 C    2.472852    0.528307    1.256737
 O    3.422373   -0.170162    1.599793
 C    1.378737    0.052173    3.489628
 C    0.317053    0.433722    4.529321
 C   -1.077409   -0.122718    4.232094
 C    0.249032    1.947325    4.732848
 N    2.446104    1.285459    0.142869
 C    3.506506    1.327874   -0.868608
 C    4.852108    1.754115   -0.262584
 O    5.622407    0.673490    0.207916
 C    3.082841    2.290845   -1.979126
 C    1.882496    1.855366   -2.817770
 C    2.220540    0.692183   -3.751103
 N    1.091245    0.209914   -4.539967
 C    0.076511   -0.519380   -3.959257
 N   -1.004941   -0.702373   -4.807126
 N    0.056045   -1.006519   -2.774140
 H   -1.665944   -4.562285   -0.280718
 H   -0.326065   -3.841171   -1.182283
 H   -0.071395   -4.472649    0.466118
 H   -1.091706   -1.757679   -1.399497
 H   -2.043771    0.201124   -1.067854
 H   -2.798808   -0.656340    1.752775
 H   -3.095825    0.928969    1.047701
 H   -5.104068   -0.258817    0.990830
 H   -4.575691    1.094447   -1.068624
 H   -4.051415   -0.390264   -1.872506
 H   -5.726373   -0.214208   -1.362598
 H   -4.150926   -2.610316    1.125797
 H   -5.526843   -2.425884    0.027258
 H   -3.890981   -2.541615   -0.620682
 H   -0.232010   -0.924246    1.739741
 H    0.928708    1.695784    2.162540
 H    1.442670   -1.035205    3.399984
 H    2.353039    0.386919    3.851432
 H    0.658170   -0.015263    5.468539
 H   -1.559541    0.444664    3.431166
 H   -1.714124   -0.033537    5.114074
 H   -1.051981   -1.171214    3.933778
 H   -0.389880    2.191345    5.582383
 H   -0.174314    2.441376    3.854963
 H    1.237464    2.374341    4.915220
 H    1.556264    1.730364   -0.059146
 H    3.645508    0.319471   -1.276970
 H    5.445139    2.244283   -1.035137
 H    4.661660    2.485686    0.534654
 H    5.055803    0.197941    0.831152
 H    3.937138    2.438299   -2.647310
 H    2.873159    3.258836   -1.515460
 H    1.559870    2.703792   -3.428624
 H    1.030637    1.593004   -2.185548
 H    2.630683   -0.150420   -3.194317
 H    2.993332    1.000429   -4.456246
 H    0.784769    0.835925   -5.268611
 H   -0.753675   -0.838869   -5.772455
 H   -1.647281   -1.400224   -4.470566
 H    0.868786   -0.706680   -2.244232
