33 
1pr5_ligand_ani-2x.xyz
 O   -2.990085    1.349858   -0.252034
 C   -3.416654    0.700226   -1.427853
 C   -2.527985   -0.492101   -1.762192
 O   -1.178705   -0.008080   -1.846567
 C   -0.335714   -0.691837   -0.931985
 N    0.607967    0.266924   -0.398785
 C    0.924512    1.480352   -0.986938
 C    1.957059    2.065091   -0.320387
 C    2.334551    1.166458    0.734030
 C    3.285908    1.095750    1.771128
 N    3.333964    0.034876    2.591660
 C    2.460747   -0.941621    2.384859
 N    1.509673   -1.007081    1.445993
 C    1.477739    0.062355    0.645336
 N    4.159599    2.109353    2.003994
 C   -1.279504   -1.274322    0.124964
 O   -0.771509   -2.434633    0.719698
 C   -2.519604   -1.598388   -0.702417
 O   -2.345423   -2.830781   -1.363913
 H   -2.067966    1.603062   -0.408361
 H   -4.442949    0.358269   -1.251646
 H   -3.435496    1.391002   -2.284241
 H   -2.807609   -0.920435   -2.731738
 H    0.200993   -1.497152   -1.452707
 H    0.359121    1.794174   -1.853312
 H    2.396385    3.027552   -0.552451
 H    2.517427   -1.788450    3.060562
 H    4.362281    2.749957    1.252886
 H    4.914526    1.903693    2.642382
 H   -1.498116   -0.494655    0.867334
 H    0.084444   -2.185395    1.129874
 H   -3.435664   -1.605441   -0.090261
 H   -1.834312   -3.388582   -0.757113
