33 
1pr5_ligand_aiqm1.xyz
 O   -3.062576    1.283463   -0.116147
 C   -3.422895    0.692658   -1.354085
 C   -2.531860   -0.476717   -1.716594
 O   -1.182210    0.026080   -1.844258
 C   -0.312148   -0.693921   -0.996841
 N    0.669812    0.259247   -0.486127
 C    1.031998    1.447898   -1.100897
 C    2.049438    2.035074   -0.401433
 C    2.345183    1.163348    0.697433
 C    3.240622    1.126420    1.781890
 N    3.232401    0.092447    2.628428
 C    2.337400   -0.883681    2.412873
 N    1.434579   -0.979436    1.444296
 C    1.474357    0.073421    0.602908
 N    4.113236    2.139778    2.043168
 C   -1.202353   -1.313655    0.089564
 O   -0.702549   -2.510734    0.621514
 C   -2.486061   -1.596224   -0.678973
 O   -2.403489   -2.825524   -1.373318
 H   -2.166604    1.616710   -0.216934
 H   -4.451694    0.349309   -1.247080
 H   -3.384201    1.432744   -2.160479
 H   -2.836884   -0.881599   -2.684788
 H    0.204846   -1.475840   -1.563921
 H    0.512821    1.762571   -1.990293
 H    2.506206    2.976515   -0.652041
 H    2.359630   -1.698316    3.123040
 H    4.344647    2.772058    1.298856
 H    4.839533    1.930113    2.706274
 H   -1.384060   -0.560296    0.859511
 H    0.113215   -2.267571    1.091111
 H   -3.355359   -1.585904   -0.018091
 H   -1.925379   -3.430439   -0.798766
