33 
1pr5_ligand_dft.xyz
 O    2.288784   -1.699512    1.728938
 C    3.357097   -1.672556    0.807605
 C    3.173161   -0.608936   -0.266402
 O    1.951646   -0.905318   -0.973931
 C    1.024532    0.132321   -0.819973
 N   -0.284555   -0.473032   -0.586438
 C   -0.628983   -1.797434   -0.800452
 C   -1.960072   -1.979115   -0.556736
 C   -2.480595   -0.697286   -0.187254
 C   -3.720528   -0.134212    0.178680
 N   -3.815650    1.172387    0.456887
 C   -2.706723    1.913224    0.384892
 N   -1.480960    1.523060    0.056923
 C   -1.410344    0.207768   -0.223685
 N   -4.853300   -0.873898    0.290858
 C    1.510042    0.996226    0.363569
 O    1.187042    2.350776    0.253130
 C    3.025438    0.822074    0.249230
 O    3.529890    1.705249   -0.724311
 H    1.495026   -1.931587    1.228174
 H    4.264752   -1.462556    1.381203
 H    3.485764   -2.649877    0.319316
 H    3.999649   -0.651380   -0.983019
 H    0.973546    0.745091   -1.729233
 H    0.126603   -2.497209   -1.121304
 H   -2.488722   -2.918730   -0.629465
 H   -2.827888    2.967354    0.620354
 H   -4.899992   -1.787387   -0.129043
 H   -5.717027   -0.364789    0.400612
 H    1.153370    0.551302    1.300844
 H    0.207724    2.390292    0.200997
 H    3.525421    0.962066    1.217054
 H    2.985990    2.505781   -0.651553
