33 
1pr5_ligand_xtb.xyz
 O   -3.176981    1.370823   -0.369693
 C   -3.491611    0.645267   -1.528411
 C   -2.509555   -0.511438   -1.747916
 O   -1.194235    0.047541   -1.827368
 C   -0.318692   -0.640291   -0.978506
 N    0.671730    0.277856   -0.474327
 C    0.976661    1.511266   -0.997119
 C    1.995401    2.081530   -0.298113
 C    2.362075    1.155993    0.715723
 C    3.300445    1.064365    1.762170
 N    3.333813   -0.031978    2.522861
 C    2.476634   -1.005817    2.277861
 N    1.549125   -1.052879    1.340376
 C    1.509894    0.040128    0.566779
 N    4.169891    2.050128    2.059547
 C   -1.191676   -1.249379    0.144729
 O   -0.676367   -2.421271    0.686807
 C   -2.505363   -1.540229   -0.604120
 O   -2.512565   -2.836260   -1.130266
 H   -2.255586    1.649835   -0.451403
 H   -4.502527    0.257805   -1.396778
 H   -3.467930    1.298136   -2.411651
 H   -2.737440   -1.028607   -2.687401
 H    0.187209   -1.461532   -1.521456
 H    0.427085    1.875914   -1.841302
 H    2.429899    3.043621   -0.483376
 H    2.543591   -1.870612    2.924145
 H    4.259217    2.849417    1.460801
 H    4.851881    1.878718    2.776499
 H   -1.361949   -0.481788    0.915222
 H    0.201578   -2.192933    1.074561
 H   -3.371393   -1.394510    0.055676
 H   -1.972659   -3.378820   -0.534751
