17 
1pu8_ligand_xtb.xyz
 N  116.501963    8.474999   47.617832
 C  115.467097    9.121292   47.171405
 C  117.570870    9.008358   46.962553
 C  117.130742   10.018137   46.089613
 N  117.895141   10.770701   45.276331
 N  115.776540   10.070312   46.242884
 C  118.956305    8.754460   46.991932
 N  119.727246    7.927370   47.646092
 C  120.987516    8.179668   47.222499
 N  119.713032    9.570470   46.120914
 C  121.012565    9.179783   46.289958
 C  119.161133   10.518249   45.322392
 H  114.461381    8.936587   47.493194
 H  115.151336   10.691910   45.758056
 H  121.813316    7.621511   47.617254
 H  121.819011    9.631071   45.750162
 H  119.824805   11.091122   44.690928
