48 
1pwp_ligand_aiqm1.xyz
 C   86.697024   37.692123  135.798428
 C   87.254254   36.928044  134.742646
 C   88.634290   37.021234  134.379492
 N   89.484786   37.857489  135.079690
 C   89.092243   36.221459  133.357014
 C   88.205195   35.338373  132.690558
 C   88.734520   34.471344  131.584666
 N   86.923853   35.241914  132.987061
 C   86.456229   36.028702  134.002996
 C   85.083984   35.929468  134.333589
 C   84.548609   36.681599  135.345195
 C   85.358619   37.574766  136.092298
 N   84.720936   38.290117  137.126161
 C   85.230236   39.334039  137.863297
 O   86.358212   39.776838  137.726508
 N   84.317663   39.824888  138.768061
 C   84.483860   40.904653  139.658909
 C   85.691536   41.519472  139.893258
 C   85.765057   42.597040  140.811139
 C   86.988382   43.286386  141.081887
 N   88.161366   42.895440  140.461840
 C   86.968904   44.304501  142.008102
 C   85.759435   44.649511  142.663092
 C   85.769808   45.758556  143.675431
 N   84.610867   44.047760  142.422813
 C   84.616559   43.032371  141.506977
 C   83.390774   42.375713  141.245282
 C   83.323660   41.344939  140.346036
 H   87.307021   38.353882  136.389946
 H   89.071975   38.675719  135.492998
 H   90.354702   38.055162  134.615160
 H   90.136795   36.261286  133.061825
 H   89.193016   35.083583  130.804952
 H   89.508265   33.801212  131.965664
 H   87.924480   33.883104  131.156744
 H   84.475064   35.240650  133.763702
 H   83.492720   36.593995  135.584634
 H   83.766975   38.023711  137.293994
 H   83.405548   39.404221  138.784108
 H   86.570095   41.158720  139.385400
 H   88.071443   42.478425  139.551467
 H   88.904089   43.572266  140.505709
 H   87.882447   44.842898  142.243431
 H   86.434997   45.508490  144.504838
 H   86.144981   46.681471  143.227688
 H   84.762568   45.921166  144.055341
 H   82.512436   42.712960  141.778961
 H   82.374022   40.853037  140.156012
