27 
1pwy_ligand_aiqm1.xyz
 C  -19.619837   88.000958    3.863330
 O  -20.468530   87.631965    2.775782
 C  -18.220365   88.213990    3.332566
 O  -17.544995   87.010445    3.004610
 C  -17.891519   86.422144    1.777960
 N  -17.544745   87.259825    0.646803
 C  -18.359586   88.112048   -0.072018
 N  -17.707013   88.812429   -0.965817
 C  -16.394141   88.409008   -0.818811
 C  -15.210397   88.817765   -1.524073
 O  -15.048198   89.617916   -2.419736
 N  -14.080918   88.111190   -1.010655
 C  -14.105039   87.169817   -0.023660
 N  -12.907375   86.550021    0.251532
 N  -15.171882   86.801724    0.621946
 C  -16.283880   87.453579    0.171899
 H  -19.610179   87.220401    4.628919
 H  -19.964470   88.935465    4.315248
 H  -21.353333   87.487019    3.109545
 H  -17.623327   88.672141    4.122375
 H  -18.255098   88.891957    2.476296
 H  -18.958904   86.205145    1.708600
 H  -17.302405   85.509716    1.712730
 H  -19.419373   88.166534    0.125929
 H  -13.219706   88.293781   -1.503933
 H  -12.943420   86.011629    1.102598
 H  -12.084965   87.124088    0.175236
