33 
1py5_ligand_dft.xyz
 C    4.608782    8.261707    5.555008
 C    5.346644    9.392197    6.011437
 N    5.437448    9.408518    7.337177
 N    4.779840    8.313092    7.732788
 C    4.263026    7.594735    6.712765
 C    4.360961    7.832094    4.166966
 C    5.936546   10.480386    5.200441
 N    7.131759   10.944981    5.583888
 C    7.669337   11.931829    4.867700
 C    7.069345   12.494248    3.744973
 C    5.828760   12.005418    3.351942
 C    5.248293   10.984750    4.092264
 C    3.045002    7.565819    3.676090
 C    2.918412    7.125264    2.328290
 N    3.982585    6.971302    1.489983
 C    5.169935    7.252568    1.970732
 C    5.413179    7.679759    3.294010
 C    1.867401    7.739727    4.450071
 C    0.633886    7.461275    3.920032
 C    0.512826    6.996437    2.589791
 C    1.628931    6.836874    1.811544
 H    4.721819    8.114114    8.718575
 H    3.726266    6.670298    6.867981
 H    8.639049   12.288544    5.209034
 H    7.562537   13.291967    3.199445
 H    5.316581   12.415652    2.486815
 H    4.274890   10.586842    3.825837
 H    6.009297    7.130424    1.287946
 H    6.429495    7.875172    3.620593
 H    1.953975    8.112959    5.465221
 H   -0.258447    7.604764    4.521987
 H   -0.470518    6.776348    2.185127
 H    1.569159    6.494939    0.783548
