33 
1py5_ligand_aiqm1.xyz
 C    4.593815    8.260143    5.606888
 C    5.330710    9.395811    6.056221
 N    5.428205    9.425855    7.382909
 N    4.764610    8.331978    7.784933
 C    4.248112    7.600327    6.768383
 C    4.369626    7.851197    4.211942
 C    5.906403   10.457532    5.209267
 N    7.194283   10.764798    5.405366
 C    7.725999   11.714190    4.627023
 C    7.019594   12.390344    3.638572
 C    5.680858   12.065335    3.444744
 C    5.108641   11.083513    4.243245
 C    3.070679    7.580478    3.682763
 C    2.981986    7.164239    2.329210
 N    4.069873    7.030432    1.513408
 C    5.243249    7.315051    2.030928
 C    5.448306    7.726553    3.368657
 C    1.868464    7.722626    4.430416
 C    0.650476    7.447960    3.862730
 C    0.570048    7.012877    2.518052
 C    1.710181    6.877403    1.770372
 H    4.706910    8.140100    8.766378
 H    3.696564    6.690127    6.936368
 H    8.770392   11.939034    4.806785
 H    7.508392   13.146729    3.040075
 H    5.093537   12.563551    2.685255
 H    4.069956   10.800518    4.130166
 H    6.098262    7.214361    1.371228
 H    6.450785    7.935987    3.719772
 H    1.917754    8.067567    5.454801
 H   -0.255627    7.567168    4.442613
 H   -0.396268    6.794704    2.082669
 H    1.682226    6.556509    0.737862
