79 
1pyn_ligand_aiqm1.xyz
 C   -0.520573    1.534433    2.582982
 C    0.783420    1.763190    3.015940
 C    1.654891    0.694211    3.204845
 C    1.217133   -0.602088    2.974058
 C   -0.095010   -0.865762    2.564853
 C   -0.944100    0.220027    2.364040
 C   -1.120058   -2.518638    0.929893
 N   -1.572783   -3.894268    0.789290
 C   -2.480895   -4.227095   -0.162133
 C   -0.095299   -2.171738   -0.167083
 N   -0.647254   -1.877185   -1.354635
 C    0.133514   -1.290680   -2.436258
 C   -0.558229   -0.076007   -3.051312
 C   -0.043966    1.301334   -0.951373
 C   -1.047973    0.953243   -2.029705
 O    1.159726    1.745379   -1.589754
 O   -3.096700   -3.406119   -0.819604
 O   -2.593018   -5.553791   -0.252549
 C    0.585977    4.157518    3.075205
 O    1.106127   -2.149888    0.059178
 C   -0.544191   -2.288167    2.323028
 C    0.851545    4.631875    1.641930
 C    1.043318    5.205882    4.071787
 O    1.868798    5.061724    4.922795
 O    0.337177    6.338714    3.882608
 C    2.233545    1.880516   -0.760161
 C    2.709307    0.809708   -0.011869
 C    3.877880    0.966120    0.728682
 C    4.596405    2.150483    0.704939
 C    4.138396    3.218805   -0.065928
 C    2.915983    3.117330   -0.768117
 C    2.320638    4.269015   -1.479264
 O    1.135400    4.536258   -1.531671
 O    3.234373    5.067398   -2.056832
 C    2.686434    6.209064   -2.734036
 O    4.911714    4.329047   -0.063192
 O    1.785716    5.331272    1.344256
 O   -0.037385    4.137625    0.797186
 O    1.324703    2.989730    3.316103
 C   -3.556302   -6.164984   -1.165632
 C   -4.966581   -5.736634   -0.789778
 C   -3.355690   -7.651044   -0.912655
 C   -3.199590   -5.805032   -2.599509
 H   -1.195445    2.353026    2.376458
 H    2.667150    0.915831    3.512585
 H    1.906456   -1.429076    3.099244
 H   -1.962027    0.053117    2.024890
 H   -1.998126   -1.892554    0.782893
 H   -0.970109   -4.630706    1.113362
 H   -1.639699   -2.039994   -1.460260
 H    0.332681   -2.038706   -3.211868
 H    1.090911   -1.002520   -2.009400
 H   -1.405145   -0.403471   -3.661928
 H    0.154209    0.396426   -3.729454
 H    0.174938    0.446588   -0.309396
 H   -0.430508    2.108121   -0.321594
 H   -1.331436    1.867646   -2.553759
 H   -1.945725    0.587852   -1.521572
 H   -0.486283    4.015259    3.219378
 H   -1.311662   -2.576062    3.048520
 H    0.306333   -2.959795    2.452787
 H    0.686227    6.988463    4.505255
 H    2.180513   -0.135678   -0.013209
 H    4.237651    0.137462    1.327639
 H    5.514313    2.278939    1.261730
 H    3.537695    6.744200   -3.139603
 H    2.134530    6.827061   -2.029338
 H    2.017028    5.884941   -3.528642
 H    4.551671    4.964838   -0.694667
 H    0.269099    4.353670   -0.120381
 H   -5.683611   -6.296033   -1.392854
 H   -5.110370   -4.674612   -0.969964
 H   -5.152868   -5.951941    0.263833
 H   -2.328917   -7.940995   -1.139144
 H   -3.572676   -7.892233    0.128612
 H   -4.029615   -8.223272   -1.551979
 H   -2.163360   -6.078576   -2.805389
 H   -3.848623   -6.357170   -3.280832
 H   -3.332123   -4.740729   -2.774097
