79 
1pyn_ligand_ani-2x.xyz
 C   -0.489511    1.527385    2.634109
 C    0.804653    1.786450    3.081079
 C    1.718767    0.734964    3.181536
 C    1.332114   -0.561179    2.870006
 C    0.021808   -0.851845    2.481901
 C   -0.866448    0.214434    2.354541
 C   -1.038867   -2.528069    0.863320
 N   -1.494677   -3.900979    0.742585
 C   -2.428492   -4.235043   -0.192668
 C   -0.052632   -2.169182   -0.264270
 N   -0.637417   -1.889029   -1.451760
 C    0.102152   -1.291582   -2.549527
 C   -0.573034   -0.023025   -3.080563
 C    0.049320    1.315492   -0.986604
 C   -1.023451    0.965098   -2.000407
 O    1.225973    1.728889   -1.682997
 O   -3.014687   -3.421277   -0.890666
 O   -2.604703   -5.565755   -0.218405
 C    0.559278    4.179522    3.193632
 O    1.154137   -2.112344   -0.070510
 C   -0.412455   -2.282938    2.236329
 C    0.856485    4.619927    1.746172
 C    1.014213    5.252657    4.174012
 O    1.940132    5.170322    4.931221
 O    0.203668    6.321331    4.076292
 C    2.303315    1.880714   -0.853517
 C    2.852774    0.759302   -0.239440
 C    3.995793    0.902497    0.541936
 C    4.555763    2.155591    0.747881
 C    3.967886    3.277743    0.169565
 C    2.864233    3.151997   -0.696043
 C    2.303290    4.304735   -1.468413
 O    1.123814    4.624066   -1.482386
 O    3.214914    4.969243   -2.176601
 C    2.704232    6.020638   -3.016168
 O    4.496039    4.496677    0.466900
 O    1.833316    5.260763    1.428879
 O   -0.062460    4.181445    0.899270
 O    1.278583    3.008223    3.480999
 C   -3.594589   -6.155380   -1.115321
 C   -4.990383   -5.642606   -0.773466
 C   -3.488470   -7.648165   -0.822605
 C   -3.227357   -5.869669   -2.568242
 H   -1.219918    2.316939    2.486796
 H    2.731037    0.955356    3.512617
 H    2.065094   -1.365658    2.924115
 H   -1.894264    0.029967    2.042805
 H   -1.933213   -1.905115    0.739822
 H   -0.882033   -4.646852    1.041373
 H   -1.620030   -2.111251   -1.566018
 H    0.231837   -2.015495   -3.364696
 H    1.098787   -1.051703   -2.166971
 H   -1.447471   -0.298262   -3.684883
 H    0.128185    0.476074   -3.760061
 H    0.291315    0.465790   -0.336395
 H   -0.286164    2.132992   -0.332836
 H   -1.366277    1.886284   -2.487227
 H   -1.884683    0.562438   -1.450668
 H   -0.521991    4.051576    3.327526
 H   -1.152304   -2.594653    2.984488
 H    0.454760   -2.943948    2.335767
 H    0.533258    6.981459    4.709115
 H    2.385714   -0.213281   -0.382866
 H    4.432843    0.031033    1.026909
 H    5.432954    2.296325    1.373808
 H    3.570091    6.414023   -3.546939
 H    2.235044    6.796164   -2.405737
 H    1.965157    5.623327   -3.715857
 H    3.758533    5.120944    0.566992
 H    0.239630    4.404290   -0.023629
 H   -5.732256   -6.195124   -1.360052
 H   -5.080607   -4.578439   -1.002047
 H   -5.202666   -5.798288    0.289445
 H   -2.477387   -8.009754   -1.035320
 H   -3.716835   -7.849584    0.228854
 H   -4.193939   -8.209783   -1.443298
 H   -2.194314   -6.173592   -2.766862
 H   -3.890283   -6.439711   -3.227927
 H   -3.335022   -4.806432   -2.793329
