33 
1q3w_ligand_xtb.xyz
 N   24.056000  -19.300166    7.192485
 C   22.692362  -19.407606    7.196969
 C   22.027901  -19.333295    8.558736
 O   22.091866  -19.563672    6.160648
 C   24.787358  -18.189752    9.272867
 C   24.991344  -19.080333    8.203595
 C   26.234461  -19.700263    8.068844
 C   27.251173  -19.470651    8.971861
 C   27.050266  -18.598293   10.031985
 C   25.834090  -17.965228   10.171223
 N   23.406703  -16.238881    9.972859
 C   22.275117  -17.978773    9.118602
 C   23.525030  -17.502960    9.435431
 C   21.341223  -16.955282    9.448705
 C   22.099980  -15.873273    9.980866
 C   21.497206  -14.693971   10.410775
 C   20.130332  -14.600710   10.312776
 C   19.377613  -15.667525    9.795389
 C   19.959774  -16.845508    9.359067
 N   17.951876  -15.527924    9.721233
 O   17.464213  -14.471465   10.071564
 O   17.309265  -16.475604    9.315677
 H   24.460181  -19.530995    6.291395
 H   22.466932  -20.099457    9.204258
 H   20.963086  -19.522832    8.437406
 H   26.393946  -20.369228    7.235307
 H   28.201087  -19.967520    8.849353
 H   27.841165  -18.414259   10.742379
 H   25.673005  -17.294068   11.002337
 H   24.179388  -15.656254   10.248231
 H   22.084917  -13.881004   10.807915
 H   19.606550  -13.712994   10.630440
 H   19.343591  -17.636253    8.960819
