33 
1q3w_ligand_aiqm1.xyz
 N   24.067089  -19.216047    7.138184
 C   22.703469  -19.433099    7.203344
 C   22.073926  -19.351291    8.579146
 O   22.077122  -19.671999    6.192764
 C   24.799786  -18.181154    9.262930
 C   25.010290  -19.037019    8.166537
 C   26.248655  -19.675121    8.031924
 C   27.256902  -19.492150    8.966635
 C   27.048770  -18.654344   10.061687
 C   25.828699  -18.008579   10.197083
 N   23.405161  -16.233143    9.990605
 C   22.279456  -17.988220    9.153123
 C   23.522485  -17.501558    9.449608
 C   21.333967  -16.955828    9.476176
 C   22.083771  -15.864640    9.986342
 C   21.486247  -14.666484   10.402410
 C   20.113461  -14.569360   10.301575
 C   19.373529  -15.651395    9.799651
 C   19.941076  -16.839815    9.384293
 N   17.917893  -15.510751    9.713951
 O   17.428373  -14.447300   10.064106
 O   17.281850  -16.468562    9.299938
 H   24.437953  -19.447427    6.230021
 H   22.576851  -20.087964    9.213875
 H   21.025815  -19.611232    8.482287
 H   26.415039  -20.315392    7.173207
 H   28.200803  -20.002625    8.838304
 H   27.825088  -18.506059   10.798578
 H   25.656327  -17.362251   11.049583
 H   24.183044  -15.628909   10.182928
 H   22.075357  -13.844862   10.787219
 H   19.587193  -13.675994   10.600206
 H   19.303550  -17.625429    9.003782
