32 
1q41_ligand_ani-2x.xyz
 C   40.248718    3.932382   35.388096
 C   39.594151    5.252688   35.261551
 C   40.851613    3.920821   36.644488
 N   40.613331    5.112349   37.271152
 C   41.571726    2.820739   37.117179
 C   41.670491    1.721104   36.284152
 C   41.069416    1.714445   35.014327
 C   40.357995    2.812345   34.557850
 C   39.870282    5.957355   36.508876
 C   39.517913    7.238098   36.980085
 C   39.962965    7.668159   38.322227
 N   39.472490    8.952733   38.506916
 C   38.759709    9.368924   37.402859
 C   38.763568    8.340403   36.437843
 C   38.120004   10.584274   37.208510
 C   37.461397   10.777953   36.007842
 C   37.447851    9.771996   35.027645
 C   38.086452    8.563090   35.225739
 O   40.630895    7.082923   39.172109
 N   38.911999    5.715240   34.265284
 O   38.832678    4.803824   33.235990
 H   40.925925    5.395377   38.196010
 H   42.034702    2.831978   38.101058
 H   42.223141    0.846573   36.618262
 H   41.165052    0.834680   34.382796
 H   39.893171    2.811619   33.580058
 H   39.639586    9.475172   39.352302
 H   38.137246   11.355769   37.974678
 H   36.948722   11.717329   35.819350
 H   36.922405    9.951126   34.093058
 H   38.076030    7.786691   34.469320
 H   38.307478    5.262941   32.566390
