52 
1q4x_ligand_xtb.xyz
 C   11.975504   25.678376   41.700563
 C   12.202132   24.607575   40.852227
 C   11.860842   23.325690   41.245066
 C   11.285976   23.120220   42.488662
 C   11.056159   24.191197   43.331355
 C   11.400037   25.483016   42.947937
 C   11.165316   26.629501   43.892962
 C   11.814835   26.367846   45.226458
 C   13.114921   25.892649   45.290481
 C   11.114918   26.565239   46.418380
 O    9.833118   27.034580   46.358789
 C   11.725280   26.273965   47.631355
 C   13.017563   25.785548   47.669908
 C   13.731734   25.590651   46.495903
 C   15.140602   25.052348   46.526824
 C   15.264687   23.878893   47.464041
 C   15.927431   23.990232   48.685984
 C   16.579335   25.272694   49.119404
 C   16.006421   22.893609   49.538335
 C   14.678405   22.658336   47.107289
 C   13.960271   22.495224   45.802476
 C   14.766097   21.578117   47.967295
 C   15.427770   21.688572   49.183494
 O   15.450684   20.548924   49.957360
 C   16.111666   20.578933   51.199678
 C   16.000586   19.190738   51.844612
 O   15.340005   18.300656   51.115893
 O   16.474702   18.945604   52.914830
 H   12.249652   26.676638   41.388314
 H   12.650044   24.775443   39.883336
 H   12.041308   22.489515   40.585602
 H   11.016625   22.121674   42.801208
 H   10.607991   24.030475   44.301748
 H   10.093739   26.770353   44.049620
 H   11.565756   27.552181   43.464528
 H   13.650189   25.738866   44.363856
 H    9.479247   27.111513   47.252346
 H   11.176111   26.422781   48.552521
 H   13.465286   25.542772   48.621745
 H   15.817602   25.852010   46.829017
 H   15.425777   24.747492   45.517705
 H   17.404834   25.527130   48.454941
 H   15.870330   26.098782   49.110758
 H   16.976502   25.175260   50.126692
 H   16.525421   23.002985   50.477840
 H   13.143517   23.209630   45.718368
 H   14.636233   22.668721   44.965763
 H   13.556581   21.490464   45.712342
 H   14.319920   20.631075   47.705197
 H   15.660567   21.310119   51.883318
 H   17.177279   20.818778   51.087732
 H   15.041390   18.712909   50.284044
