52 
1q4x_ligand_dft.xyz
 C    5.406927    1.125511   -1.242678
 C    5.703501    2.483579   -1.150682
 C    5.813133    3.089714    0.096213
 C    5.624802    2.329344    1.248825
 C    5.328497    0.974511    1.153495
 C    5.216808    0.356144   -0.095125
 C    4.856184   -1.113677   -0.193938
 C    3.395316   -1.358911    0.121776
 C    2.415324   -1.160082   -0.845858
 C    2.984123   -1.737983    1.404556
 O    3.951568   -1.916332    2.353337
 C    1.631651   -1.911571    1.687045
 C    0.675757   -1.702311    0.699187
 C    1.054002   -1.325794   -0.588076
 C    0.035441   -1.116884   -1.697919
 C   -1.304234   -0.601901   -1.219075
 C   -2.389288   -1.469269   -1.043806
 C   -2.271432   -2.946236   -1.342355
 C   -3.613190   -0.976761   -0.576410
 C   -1.450232    0.763294   -0.902579
 C   -0.293532    1.719402   -1.055475
 C   -2.671237    1.237481   -0.441029
 C   -3.749758    0.372457   -0.281749
 O   -4.908730    0.939800    0.179220
 C   -6.044876    0.126687    0.365633
 C   -7.191540    0.998249    0.871569
 O   -6.905581    2.293670    1.018696
 O   -8.271198    0.530432    1.114212
 H    5.326017    0.656714   -2.220941
 H    5.851206    3.066351   -2.055492
 H    6.046169    4.147799    0.171291
 H    5.711046    2.794739    2.226689
 H    5.176799    0.381808    2.051622
 H    5.480765   -1.695641    0.489738
 H    5.066595   -1.471298   -1.207877
 H    2.732310   -0.850819   -1.840858
 H    3.534138   -2.184234    3.180339
 H    1.320077   -2.200962    2.688917
 H   -0.376368   -1.817429    0.944141
 H   -0.098844   -2.059366   -2.239696
 H    0.458319   -0.419023   -2.429686
 H   -2.131561   -3.130168   -2.413998
 H   -1.420022   -3.396515   -0.820206
 H   -3.173091   -3.481539   -1.032424
 H   -4.441205   -1.665515   -0.448243
 H    0.586711    1.371328   -0.504525
 H    0.002639    1.821801   -2.106486
 H   -0.554936    2.714670   -0.686654
 H   -2.800412    2.287093   -0.194193
 H   -5.860368   -0.660566    1.106576
 H   -6.361159   -0.345104   -0.572665
 H   -5.976182    2.425365    0.761651
