40 
1q6k_ligand_aiqm1.xyz
 N    0.289898   -0.262677   -1.310562
 C   -0.771283   -1.237580   -1.437957
 C   -1.074839   -1.446289   -2.900500
 O   -0.544905   -0.819843   -3.787303
 C   -2.656672    0.471336   -1.124842
 C   -3.935404    0.784492   -0.348436
 C   -3.667778    0.812200    1.153456
 C   -3.070540   -0.513915    1.615196
 C   -1.793822   -0.826936    0.839765
 C   -2.054320   -0.859219   -0.667145
 C    1.303279   -0.456031   -0.427664
 O    1.318236   -1.328822    0.417211
 O    2.254382    0.470212   -0.627923
 C    4.148577    1.771092   -0.269775
 C    3.389129    0.571103    0.276609
 C    2.900445    0.841592    1.692372
 C    4.236196   -0.690065    0.187035
 H    0.473554    0.327399   -2.106373
 H   -0.414593   -2.195165   -1.043287
 H   -1.840155   -2.210923   -3.126965
 H   -2.861248    0.460711   -2.200971
 H   -1.924053    1.263576   -0.947718
 H   -4.686913    0.016949   -0.565236
 H   -4.352142    1.737674   -0.680089
 H   -2.961463    1.618871    1.375343
 H   -4.586710    1.031877    1.700816
 H   -2.859872   -0.488088    2.685722
 H   -3.802562   -1.314031    1.455203
 H   -1.360720   -1.775284    1.165675
 H   -1.045243   -0.055723    1.044542
 H   -2.780422   -1.658031   -0.873047
 H    5.041298    1.945933    0.333464
 H    4.452792    1.589272   -1.301297
 H    3.522492    2.663775   -0.236156
 H    2.363240   -0.017041    2.085280
 H    2.242269    1.712878    1.699563
 H    3.757640    1.045479    2.336495
 H    5.143933   -0.558279    0.779084
 H    3.689002   -1.548148    0.568147
 H    4.519101   -0.874430   -0.851029
