44 
1q7a_ligand_dft.xyz
 C    3.831180   -1.704176    0.280201
 C    2.571404   -1.234275    0.633422
 C    1.453630   -1.665161   -0.081296
 C    1.594337   -2.555243   -1.146683
 C    2.859488   -3.028576   -1.475164
 C    3.981851   -2.604892   -0.769586
 C    1.225546    2.563388   -1.338634
 C    1.577677    3.586821   -0.458080
 C    1.426639    3.400994    0.915363
 C    0.937764    2.196859    1.408148
 C    0.575327    1.184902    0.526043
 C    0.718258    1.369796   -0.848915
 C   -4.512526    0.901841   -2.345019
 C   -4.575091    0.058780   -1.072966
 C   -3.193847   -0.203849   -0.473767
 C   -3.258830   -1.054617    0.795934
 N    0.152755   -1.196228    0.254550
 C   -0.935077   -2.035925    0.464482
 C   -1.878569   -1.329157    1.415110
 C   -1.161589   -0.039559    1.751165
 N    0.047099   -0.032276    1.056658
 O   -1.072301   -3.136314   -0.020438
 O   -1.567327    0.874835    2.430520
 O    2.065168    4.735179   -0.997730
 H    4.699229   -1.363339    0.836116
 H    2.457657   -0.535323    1.453843
 H    0.719240   -2.883923   -1.692070
 H    2.964569   -3.730656   -2.296622
 H    4.967652   -2.971261   -1.038438
 H    1.351364    2.719781   -2.404317
 H    1.699532    4.192459    1.609460
 H    0.818652    2.048440    2.474424
 H    0.440056    0.577253   -1.535090
 H   -5.511500    1.077905   -2.756430
 H   -3.915776    0.402704   -3.117150
 H   -4.052707    1.876802   -2.147834
 H   -5.063485   -0.900469   -1.289025
 H   -5.201271    0.564358   -0.326336
 H   -2.567445   -0.707887   -1.223159
 H   -2.709348    0.757189   -0.251962
 H   -3.870996   -0.551511    1.552180
 H   -3.723569   -2.022091    0.576671
 H   -1.992628   -1.949265    2.310616
 H    2.262053    5.361062   -0.290707
