44 
1q7a_ligand_aiqm1.xyz
 C   -4.072476   -1.999956   -0.410204
 C   -2.897772   -1.342547   -0.768725
 C   -1.682251   -1.788020   -0.248491
 C   -1.631642   -2.876625    0.621343
 C   -2.812390   -3.528902    0.959310
 C   -4.035070   -3.092508    0.452040
 C   -1.538351    2.053098    1.954886
 C   -2.009457    3.237396    1.392528
 C   -1.996393    3.409919    0.010315
 C   -1.520880    2.397890   -0.815082
 C   -1.039688    1.221132   -0.251406
 C   -1.048477    1.045992    1.132967
 C    4.474176    0.796924    1.689683
 C    4.365152    0.226365    0.280979
 C    2.920302   -0.004367   -0.144510
 C    2.825053   -0.574666   -1.554367
 N   -0.464968   -1.117709   -0.584591
 C    0.638315   -1.781992   -1.099724
 C    1.378379   -0.823817   -2.000835
 C    0.544183    0.431360   -1.946155
 N   -0.546799    0.190392   -1.116061
 O    0.947750   -2.922455   -0.840278
 O    0.769531    1.483895   -2.497063
 O   -2.472948    4.196218    2.249546
 H   -5.018147   -1.657465   -0.809628
 H   -2.915770   -0.494162   -1.438112
 H   -0.674914   -3.215764    0.988008
 H   -2.776627   -4.381333    1.625433
 H   -4.949421   -3.601254    0.724564
 H   -1.557740    1.937977    3.029895
 H   -2.356734    4.335145   -0.425746
 H   -1.483141    2.525070   -1.885769
 H   -0.678675    0.121775    1.554692
 H    5.514624    0.959127    1.970010
 H    4.031196    0.118036    2.420835
 H    3.952715    1.752644    1.764161
 H    4.911037   -0.719322    0.220518
 H    4.841275    0.905794   -0.431133
 H    2.432060   -0.684317    0.562828
 H    2.367457    0.939532   -0.090525
 H    3.286221    0.116577   -2.264096
 H    3.362204   -1.524888   -1.607518
 H    1.378152   -1.226493   -3.014528
 H   -2.758854    4.956203    1.738704
