75 
1q9d_ligand_ani-2x.xyz
 O   -1.798508    1.057228    4.326474
 C   -1.998832    0.393193    3.152539
 C   -2.912895    0.829095    2.195044
 C   -3.055463    0.124430    1.006868
 C   -2.289093   -1.013569    0.738432
 C   -1.401400   -1.449129    1.725129
 C   -1.257349   -0.762599    2.922693
 C   -2.422871   -1.757409   -0.576574
 C   -1.788905   -1.071954   -1.816412
 C   -2.442086    0.278290   -2.080494
 O   -3.642266    0.315765   -2.302923
 N   -1.645272    1.387329   -2.063609
 C   -0.302160    1.430611   -1.515078
 C    0.410601    0.084731   -1.557822
 O    1.623093    0.070560   -1.354601
 N   -0.327530   -1.035336   -1.803972
 C    0.344265   -2.325214   -2.047419
 C    0.834699   -2.980162   -0.740575
 O    0.263865   -3.969537   -0.290253
 N    1.906191   -2.419854   -0.143029
 C    2.396344   -2.963923    1.108509
 C    3.538701   -2.117388    1.663082
 C    3.095777   -0.720626    2.026473
 C    2.206702   -0.515828    3.081591
 C    1.763787    0.758872    3.419271
 C    2.243296    1.858115    2.712699
 O    1.863971    3.136143    3.008884
 C    3.116884    1.674846    1.645952
 C    3.516686    0.392513    1.297262
 C    1.392833   -2.277182   -3.166905
 C    1.914644   -3.672146   -3.508419
 C    2.886643   -3.654584   -4.684247
 C   -0.295791    2.003419   -0.081334
 C   -1.323958    3.097192    0.136942
 C   -1.359167    3.779702    1.359093
 C   -2.296611    4.777133    1.598570
 C   -3.218465    5.112273    0.612225
 C   -3.198602    4.439194   -0.602920
 C   -2.266969    3.428108   -0.844395
 C   -2.260478    2.692825   -2.176216
 H   -2.369879    1.836066    4.345151
 H   -3.465777    1.754006    2.357626
 H   -3.762938    0.468594    0.254415
 H   -0.815300   -2.349149    1.543202
 H   -0.565029   -1.100488    3.687240
 H   -3.483658   -1.886234   -0.817661
 H   -1.986410   -2.757318   -0.478859
 H   -2.074257   -1.679566   -2.682720
 H    0.281797    2.097626   -2.158758
 H   -0.451167   -3.002108   -2.378216
 H    2.190261   -1.494358   -0.458111
 H    2.723503   -3.996034    0.943116
 H    1.571233   -3.016558    1.834094
 H    3.949215   -2.626369    2.545669
 H    4.350059   -2.076759    0.924495
 H    1.853326   -1.377315    3.648320
 H    1.012936    0.902266    4.196518
 H    1.181560    3.106916    3.692082
 H    3.442248    2.543247    1.078757
 H    4.155292    0.255416    0.426046
 H    2.217763   -1.613641   -2.895884
 H    0.906399   -1.833374   -4.044339
 H    1.062919   -4.326736   -3.738215
 H    2.407068   -4.104085   -2.627250
 H    3.754831   -3.022966   -4.463140
 H    3.254550   -4.659832   -4.913960
 H    2.408078   -3.257694   -5.587287
 H   -0.470648    1.184879    0.625204
 H    0.710314    2.374259    0.140436
 H   -0.637821    3.527456    2.132242
 H   -2.305765    5.298831    2.552317
 H   -3.951704    5.895136    0.790110
 H   -3.920057    4.697256   -1.375923
 H   -1.708388    3.271219   -2.931568
 H   -3.278067    2.552184   -2.546089
