75 
1q9d_ligand_xtb.xyz
 O   -1.621416    1.493009    3.907960
 C   -1.875770    0.700348    2.825405
 C   -2.894325    0.987185    1.924970
 C   -3.093930    0.173940    0.824716
 C   -2.277787   -0.927394    0.592515
 C   -1.281949   -1.222110    1.515911
 C   -1.085420   -0.426397    2.627546
 C   -2.462063   -1.784519   -0.626428
 C   -1.833605   -1.160219   -1.900369
 C   -2.534939    0.163993   -2.160921
 O   -3.697316    0.173733   -2.521918
 N   -1.823908    1.278250   -1.950044
 C   -0.436644    1.330456   -1.582693
 C    0.316259    0.014853   -1.652328
 O    1.536520    0.044435   -1.541812
 N   -0.386057   -1.110219   -1.831281
 C    0.284502   -2.405532   -1.998069
 C    0.884484   -2.958867   -0.689147
 O    0.409018   -3.953392   -0.169077
 N    1.954588   -2.314171   -0.218303
 C    2.664595   -2.797360    0.947992
 C    3.721806   -1.793944    1.406835
 C    3.100423   -0.572841    2.026511
 C    2.513016   -0.657165    3.282585
 C    1.883960    0.434417    3.849442
 C    1.839051    1.642927    3.165049
 O    1.187104    2.729183    3.663824
 C    2.475559    1.752574    1.934385
 C    3.085729    0.649445    1.368701
 C    1.314325   -2.385257   -3.134293
 C    1.826109   -3.791569   -3.438663
 C    2.861256   -3.774658   -4.556053
 C   -0.267822    1.904504   -0.166455
 C   -1.211048    3.038833    0.114726
 C   -1.051222    3.775928    1.283723
 C   -1.919264    4.805363    1.593523
 C   -2.962255    5.113071    0.734136
 C   -3.127741    4.385359   -0.428553
 C   -2.259421    3.347766   -0.745693
 C   -2.458143    2.576138   -2.022677
 H   -2.225427    2.245570    3.897091
 H   -3.526747    1.850751    2.082857
 H   -3.896606    0.401048    0.139583
 H   -0.660397   -2.092221    1.370766
 H   -0.316901   -0.662081    3.343760
 H   -3.525943   -1.913546   -0.833803
 H   -2.013249   -2.764559   -0.457165
 H   -2.105759   -1.808765   -2.744810
 H    0.068411    2.010230   -2.288017
 H   -0.496148   -3.123448   -2.270142
 H    2.209043   -1.417681   -0.622658
 H    3.138539   -3.753728    0.694245
 H    1.944516   -2.993018    1.750327
 H    4.362231   -2.289507    2.139926
 H    4.338519   -1.509833    0.552482
 H    2.541402   -1.592602    3.823500
 H    1.419578    0.355056    4.823826
 H    0.649748    2.457734    4.419470
 H    2.480617    2.709283    1.435421
 H    3.548293    0.743852    0.397677
 H    2.152200   -1.739040   -2.876053
 H    0.835335   -1.969127   -4.025119
 H    0.988302   -4.430276   -3.726928
 H    2.268048   -4.219016   -2.536765
 H    3.713769   -3.159708   -4.276904
 H    3.216127   -4.781253   -4.762188
 H    2.431156   -3.368533   -5.469010
 H   -0.436434    1.113687    0.569023
 H    0.765177    2.231620   -0.045942
 H   -0.237893    3.534938    1.951532
 H   -1.781509    5.370762    2.503573
 H   -3.644780    5.915494    0.971229
 H   -3.939883    4.616941   -1.102318
 H   -2.038576    3.141456   -2.867363
 H   -3.520213    2.409323   -2.217188
