41 
1q9m_ligand_xtb.xyz
 C   -1.716125    0.380918    0.698503
 C   -0.381277    0.654046    0.447088
 C    0.566700   -0.356753    0.334408
 C    0.167508   -1.687008    0.524252
 C   -1.176592   -1.959429    0.747798
 C   -2.110493   -0.945763    0.825947
 C   -2.711513    1.505806    0.828741
 C   -3.952683    1.282869   -0.046194
 C   -5.003511    0.708130    0.892365
 O   -6.050003    0.186986    0.589785
 N   -4.554009    0.895065    2.150925
 C   -3.287753    1.570295    2.261927
 O    1.865596    0.012137    0.081160
 C    2.442706   -0.511893   -1.117583
 C    3.944987   -0.180691   -1.076524
 C    4.235067    0.626615   -2.344060
 C    2.903915    1.307071   -2.649133
 C    1.891532    0.201297   -2.365216
 O    1.038823   -2.754965    0.460072
 C    2.096156   -2.731238    1.401425
 H   -0.042670    1.672263    0.322611
 H   -1.470899   -2.990979    0.865176
 H   -3.146810   -1.190499    1.000227
 H   -2.213578    2.444435    0.579363
 H   -4.337724    2.221683   -0.447701
 H   -3.767854    0.608168   -0.880006
 H   -5.100158    0.643151    2.957909
 H   -3.427328    2.609822    2.586124
 H   -2.635677    1.066415    2.980828
 H    2.255472   -1.589051   -1.175520
 H    4.558670   -1.077031   -1.006843
 H    4.121964    0.428963   -0.189706
 H    4.500907   -0.043847   -3.163072
 H    5.049222    1.335323   -2.202054
 H    2.842611    1.679606   -3.670414
 H    2.746629    2.138712   -1.961244
 H    0.883736    0.576952   -2.190355
 H    1.858492   -0.501118   -3.198976
 H    1.705350   -2.841013    2.418974
 H    2.728328   -3.584592    1.161985
 H    2.682085   -1.811162    1.343109
