41 
1q9m_ligand_aiqm1.xyz
 C   -1.461054    0.388317    1.012014
 C   -0.148067    0.581522    0.580944
 C    0.755540   -0.470152    0.468431
 C    0.344058   -1.767385    0.817712
 C   -0.963195   -1.966600    1.243762
 C   -1.867402   -0.910848    1.332312
 C   -2.397184    1.578404    1.061230
 C   -3.279750    1.678461   -0.202626
 C   -4.594930    1.025586    0.191443
 O   -5.503212    0.702822   -0.545011
 N   -4.572375    0.872480    1.547462
 C   -3.435552    1.496215    2.198969
 O    2.029842   -0.193047    0.046766
 C    2.374310   -0.789863   -1.230508
 C    3.775546   -0.317893   -1.566674
 C    3.588148    1.121658   -2.077857
 C    2.120848    1.197831   -2.579470
 C    1.530297   -0.206266   -2.357275
 O    1.162677   -2.863008    0.689024
 C    2.310470   -2.851254    1.535671
 H    0.209217    1.571934    0.311734
 H   -1.267905   -2.976457    1.489850
 H   -2.878625   -1.114557    1.653457
 H   -1.796644    2.480664    1.176411
 H   -3.492797    2.719439   -0.459933
 H   -2.867165    1.195207   -1.086828
 H   -5.420553    0.628608    2.029430
 H   -3.683762    2.498975    2.564066
 H   -3.083848    0.899000    3.038697
 H    2.285522   -1.873787   -1.148430
 H    4.160746   -0.960959   -2.360985
 H    4.450516   -0.386292   -0.712982
 H    4.302181    1.355937   -2.866796
 H    3.748293    1.837414   -1.272858
 H    2.057645    1.501396   -3.623918
 H    1.567080    1.931501   -1.993418
 H    0.467158   -0.195092   -2.117108
 H    1.672968   -0.826877   -3.244480
 H    2.007988   -2.804019    2.584436
 H    2.835459   -3.784837    1.346296
 H    2.957311   -2.004479    1.303142
