68 
1qb9_ligand_xtb.xyz
 N   21.081307    1.465921   52.864642
 C   21.110811    0.680852   53.859531
 N   20.339243   -0.446048   54.008898
 C   22.007199    1.011846   54.986820
 C   23.153370    1.729195   54.742234
 C   24.035921    2.068194   55.783856
 C   25.219106    2.800508   55.552256
 C   26.062833    3.126855   56.579469
 C   25.753004    2.716072   57.891442
 C   24.618608    2.001541   58.148151
 C   23.728875    1.660564   57.108455
 C   22.539118    0.939408   57.337181
 C   21.700381    0.621481   56.307244
 C   27.326319    3.918230   56.337417
 N   28.459889    3.336124   57.004420
 C   29.076153    3.797339   58.145142
 C   30.120186    2.909339   58.503346
 C   30.106887    1.856256   57.528717
 C   29.055385    2.157440   56.630399
 C   30.860045    0.709906   57.333338
 C   30.571922   -0.118925   56.266029
 C   29.524602    0.180129   55.387267
 C   28.756229    1.326941   55.565967
 C   30.900259    3.167926   59.621959
 C   30.633299    4.297631   60.370050
 C   29.602256    5.163257   60.014737
 C   28.812733    4.928155   58.904703
 O   29.156278   -0.587218   54.318081
 C   29.861895   -1.775964   54.013731
 C   31.219693   -1.482236   53.352309
 C   31.079765   -1.385374   51.835464
 N   30.677000   -2.665550   51.291688
 C   29.798525   -3.456931   52.130818
 C   28.970857   -2.559710   53.042275
 C   31.030878   -3.103968   50.042139
 N   30.813890   -4.254757   49.555891
 C   31.742331   -2.124421   49.151398
 H   20.443578    1.184956   52.123357
 H   19.826649   -0.772143   53.205169
 H   20.613366   -1.149972   54.672395
 H   23.367364    2.037375   53.730710
 H   25.443351    3.107226   54.539991
 H   26.429010    2.973024   58.694321
 H   24.385280    1.689749   59.156226
 H   22.297359    0.645513   58.348957
 H   20.779163    0.093865   56.508240
 H   27.197744    4.939052   56.709754
 H   27.530362    3.973871   55.262358
 H   31.667786    0.462647   58.005458
 H   31.169210   -1.005540   56.124985
 H   27.947377    1.525810   54.882474
 H   31.698040    2.495060   59.898583
 H   31.227961    4.516016   61.244588
 H   29.413407    6.037347   60.620589
 H   28.014286    5.609900   58.649936
 H   30.013066   -2.361895   54.931282
 H   31.929246   -2.274622   53.596536
 H   31.612774   -0.539982   53.736625
 H   32.041992   -1.097576   51.409822
 H   30.348550   -0.601802   51.589690
 H   30.374800   -4.171867   52.738034
 H   29.120050   -4.028638   51.489081
 H   28.414157   -1.839629   52.440907
 H   28.248854   -3.160448   53.595134
 H   30.356906   -4.922291   50.168177
 H   32.752905   -1.936076   49.509982
 H   31.805395   -2.565789   48.161950
 H   31.203860   -1.181047   49.097123
