44 
1qku_ligand_ani-2x.xyz
 C    3.046917   -1.661105   -0.027181
 C    4.381040   -1.585521    0.343866
 C    4.923442   -0.354773    0.706256
 O    6.224636   -0.204186    1.079859
 C    4.114767    0.774624    0.691864
 C    2.772705    0.696434    0.321946
 C    1.944213    1.967755    0.375362
 C    0.605674    1.859707   -0.350607
 C   -0.084878    0.549080    0.018895
 C    0.763765   -0.627307   -0.520854
 C    2.213053   -0.536808   -0.051078
 C    0.101326   -1.994179   -0.243759
 C   -1.366430   -2.062231   -0.696737
 C   -2.180903   -0.895214   -0.132579
 C   -1.496363    0.422342   -0.540945
 C   -2.551137    1.497692   -0.236001
 C   -3.909816    0.785447   -0.494459
 C   -3.558228   -0.695020   -0.776020
 O   -4.487828   -1.630705   -0.266841
 C   -2.347369   -1.045207    1.387003
 H    2.656359   -2.635236   -0.304600
 H    4.997198   -2.483434    0.350211
 H    6.661212   -1.064304    1.043763
 H    4.549250    1.728431    0.981184
 H    2.530946    2.803371   -0.024788
 H    1.763023    2.210459    1.432723
 H   -0.021937    2.724627   -0.099067
 H    0.767322    1.892221   -1.438007
 H   -0.115456    0.488577    1.117469
 H    0.775092   -0.502806   -1.619407
 H    0.175529   -2.219159    0.828479
 H    0.654823   -2.783830   -0.761612
 H   -1.405789   -2.029394   -1.795565
 H   -1.824630   -3.012310   -0.395459
 H   -1.390353    0.385287   -1.641139
 H   -2.424350    2.390297   -0.859339
 H   -2.480517    1.826198    0.808809
 H   -4.456256    1.219814   -1.337513
 H   -4.567559    0.846939    0.380796
 H   -3.441129   -0.837792   -1.864300
 H   -5.325853   -1.487899   -0.723845
 H   -2.939317   -0.236967    1.828385
 H   -2.865273   -1.982560    1.606795
 H   -1.380821   -1.060854    1.898034
