44 
1qku_ligand_xtb.xyz
 C    3.051455   -1.625832   -0.135486
 C    4.373394   -1.549853    0.258763
 C    4.887142   -0.344852    0.715609
 O    6.181688   -0.208093    1.121600
 C    4.058553    0.766061    0.752057
 C    2.731639    0.689828    0.354364
 C    1.908356    1.947149    0.431409
 C    0.609285    1.843188   -0.356031
 C   -0.077351    0.530466    0.004166
 C    0.762759   -0.634522   -0.545947
 C    2.201889   -0.526480   -0.083462
 C    0.116192   -1.985097   -0.200543
 C   -1.346148   -2.072199   -0.651025
 C   -2.160331   -0.896090   -0.118509
 C   -1.479691    0.404280   -0.572804
 C   -2.519230    1.486129   -0.270616
 C   -3.868022    0.783808   -0.523366
 C   -3.546934   -0.711778   -0.765014
 O   -4.502657   -1.591156   -0.222410
 C   -2.341529   -1.019551    1.395330
 H    2.686348   -2.574059   -0.496719
 H    5.006502   -2.426280    0.208466
 H    6.636584   -1.054333    1.036331
 H    4.469040    1.703162    1.095964
 H    2.504080    2.790527    0.074682
 H    1.675588    2.140791    1.484000
 H   -0.034247    2.691307   -0.117408
 H    0.816861    1.867943   -1.428113
 H   -0.122927    0.460664    1.094393
 H    0.766886   -0.544783   -1.642588
 H    0.191997   -2.152555    0.874643
 H    0.658194   -2.792052   -0.694548
 H   -1.381160   -2.065452   -1.743965
 H   -1.778928   -3.013990   -0.309896
 H   -1.380839    0.349725   -1.665036
 H   -2.395562    2.355897   -0.914706
 H   -2.436547    1.821437    0.763026
 H   -4.387493    1.212353   -1.380988
 H   -4.525805    0.867630    0.342342
 H   -3.457925   -0.896228   -1.848730
 H   -5.355321   -1.403117   -0.626937
 H   -2.829312   -0.142732    1.807977
 H   -2.972650   -1.881491    1.595616
 H   -1.393724   -1.159268    1.904110
