42 
1qon_ligand_aiqm1.xyz
 C   32.437711   63.105152    9.049497
 C   31.449042   63.258535    7.902505
 C   30.405014   64.295113    8.286664
 C   31.049255   65.669266    8.439540
 C   32.945702   66.833017    9.632767
 C   34.690859   67.895522   11.106091
 C   35.807024   67.757174   11.892982
 C   36.401250   66.486618   12.070486
 C   35.840491   65.380473   11.485707
 N   34.138968   64.340885   10.195621
 C   33.006603   64.421528    9.523831
 C   32.349563   65.649019    9.220500
 C   34.107790   66.768820   10.464955
 C   34.670947   65.491093   10.691638
 N   32.384788   68.063845    9.277984
 I   30.598627   71.969601   12.766648
 C   33.207717   69.153815    8.761106
 C   33.158226   70.401923    9.612193
 C   32.162429   70.571014   10.564358
 C   32.124761   71.729814   11.315536
 C   33.057403   72.733903   11.136678
 C   34.047874   72.562687   10.183700
 C   34.099793   71.407241    9.425874
 H   31.937150   62.629875    9.900863
 H   33.274550   62.458021    8.784847
 H   31.969650   63.581804    6.995148
 H   30.983137   62.297332    7.679620
 H   29.605715   64.352808    7.545049
 H   29.942463   63.998772    9.233223
 H   31.236152   66.090627    7.441974
 H   30.334507   66.341626    8.925878
 H   34.228351   68.865861   11.008114
 H   36.226567   68.623855   12.386921
 H   37.288171   66.388466   12.683628
 H   36.251822   64.388917   11.622263
 H   31.543244   67.949108    8.743341
 H   34.247744   68.830709    8.659904
 H   32.855245   69.425671    7.756209
 H   31.440173   69.784326   10.719083
 H   33.018569   73.634637   11.729073
 H   34.783942   73.338627   10.037172
 H   34.878014   71.278901    8.687827
