42 
1qon_ligand_dft.xyz
 C   32.424400   63.129869    8.892801
 C   31.508473   63.416878    7.706097
 C   30.468676   64.456548    8.111667
 C   31.135881   65.787809    8.468233
 C   33.002951   66.766305    9.852699
 C   34.756093   67.645031   11.427277
 C   35.870621   67.409840   12.191374
 C   36.438950   66.116551   12.247505
 C   35.858240   65.079375   11.566054
 N   34.130230   64.207153   10.181887
 C   33.015188   64.381556    9.506200
 C   32.389507   65.645988    9.312501
 C   34.156555   66.596483   10.680749
 C   34.692095   65.287805   10.784621
 N   32.487415   68.050454    9.644014
 I   31.284188   72.139939   13.209241
 C   33.319021   69.079432    9.029616
 C   33.102568   70.459859    9.619842
 C   32.441290   70.627250   10.834735
 C   32.289748   71.905188   11.366232
 C   32.784899   73.025175   10.708764
 C   33.442302   72.850272    9.492377
 C   33.597613   71.580836    8.950892
 H   31.852098   62.605650    9.671318
 H   33.251844   62.468701    8.621012
 H   32.097762   63.793404    6.858912
 H   31.023377   62.493074    7.373366
 H   29.737225   64.620807    7.313156
 H   29.912508   64.081817    8.980950
 H   31.391009   66.322451    7.540575
 H   30.394449   66.410618    8.987819
 H   34.308565   68.633507   11.423646
 H   36.310224   68.218212   12.767689
 H   37.326049   65.944760   12.850030
 H   36.253017   64.069616   11.610872
 H   31.567384   68.033766    9.227305
 H   34.368368   68.796540    9.152578
 H   33.144586   69.122995    7.944264
 H   32.050806   69.752609   11.344170
 H   32.661165   74.017220   11.128887
 H   33.830867   73.716951    8.966120
 H   34.108794   71.457709    7.998955
