11 
1qpb_ligand_ani-2x.xyz
 C   82.997641   56.859730   17.229817
 N   81.971383   57.029736   18.089936
 O   83.314520   55.806598   16.705272
 C   83.767803   58.175751   16.955156
 O   83.410466   59.196821   17.502935
 C   84.928837   58.090120   16.008489
 H   81.402043   56.236319   18.338170
 H   81.783056   57.943291   18.475299
 H   84.756965   58.766797   15.166844
 H   85.837785   58.411120   16.524884
 H   85.048000   57.068016   15.646396
