11 
1qpb_ligand_xtb.xyz
 C   83.011612   56.860779   17.217875
 N   81.990746   57.024513   18.073357
 O   83.330422   55.815619   16.694449
 C   83.760205   58.185829   16.963379
 O   83.395696   59.197786   17.514233
 C   84.912429   58.083336   16.019927
 H   81.406381   56.250494   18.339344
 H   81.820039   57.945406   18.446858
 H   84.752671   58.756332   15.179291
 H   85.822229   58.404000   16.524525
 H   85.016071   57.060206   15.669963
