11 
1qpb_ligand_aiqm1.xyz
 C   82.995408   56.857226   17.230463
 N   81.971313   57.028470   18.089705
 O   83.314732   55.807282   16.705848
 C   83.764366   58.166197   16.954908
 O   83.408571   59.188344   17.501593
 C   84.925896   58.087874   16.010194
 H   81.398493   56.246035   18.344418
 H   81.799687   57.945187   18.462331
 H   84.756211   58.768703   15.177205
 H   85.828393   58.414274   16.525204
 H   85.055430   57.074708   15.641331
