70 
1qtn_ligand_ani-2x.xyz
 C    5.129448    0.623086   -0.429152
 O    4.616932    1.105545   -1.437108
 C    6.567905    0.884063   -0.053177
 N    4.447555   -0.210025    0.407694
 C    3.020651   -0.411241    0.281830
 C    2.254306    0.661622    1.073581
 O    2.768714    1.327323    1.959310
 C    2.594042   -1.832688    0.715790
 C    2.991323   -2.149375    2.166591
 C    3.130062   -2.864705   -0.277590
 C    2.203904   -3.327070    2.746857
 N    0.951214    0.782382    0.703084
 C    0.087211    1.810341    1.247056
 C   -1.303310    1.183255    1.417932
 O   -1.435373    0.205668    2.152056
 C    0.160347    3.107764    0.428658
 C    0.093550    2.906852   -1.095198
 C    1.330201    2.234790   -1.666797
 O    1.309199    1.299261   -2.455587
 O    2.460692    2.763593   -1.236893
 N   -2.342789    1.694408    0.713956
 C   -3.670631    1.090020    0.789591
 C   -3.745685   -0.159375   -0.116965
 O   -4.479119   -0.201449   -1.099471
 C   -4.736050    2.110321    0.376690
 O   -4.336525    3.354358    0.944192
 C   -6.124039    1.709767    0.852751
 C   -1.737194   -3.256836    0.032361
 N   -2.942600   -1.191044    0.234103
 O   -1.387307   -4.268215   -0.776497
 C   -2.718519   -2.310957   -0.651661
 C   -2.232025   -1.908788   -2.057748
 C   -0.973371   -1.078224   -2.025613
 O   -0.091994   -1.234889   -1.194115
 O   -0.910163   -0.185295   -2.998927
 O   -1.333331   -3.153281    1.165728
 H    7.120643   -0.055117    0.048149
 H    6.629213    1.419726    0.900256
 H    7.025560    1.492204   -0.833198
 H    4.811789   -0.312336    1.346668
 H    2.774058   -0.297224   -0.780343
 H    1.497250   -1.854150    0.660985
 H    2.830761   -1.259714    2.791376
 H    4.067654   -2.368257    2.216346
 H    4.224621   -2.841643   -0.313941
 H    2.813036   -3.876578   -0.004048
 H    2.750053   -2.662478   -1.286387
 H    2.418096   -4.264166    2.219513
 H    2.452845   -3.482402    3.801638
 H    1.124624   -3.147971    2.680069
 H    0.575117    0.111521    0.037784
 H    0.452475    2.015138    2.259782
 H   -0.623876    3.799673    0.758005
 H    1.111152    3.587865    0.669138
 H   -0.770598    2.307952   -1.400145
 H    0.004949    3.884662   -1.582115
 H    3.212966    2.184721   -1.515142
 H   -2.306826    2.653440    0.393803
 H   -3.828882    0.774024    1.831327
 H   -4.728247    2.176239   -0.720664
 H   -4.971792    4.019597    0.654405
 H   -6.149143    1.654291    1.946678
 H   -6.867913    2.447966    0.531029
 H   -6.404396    0.740079    0.433508
 H   -2.361887   -1.122954    1.067664
 H   -0.772111   -4.822422   -0.268983
 H   -3.656454   -2.869570   -0.779454
 H   -2.014905   -2.817375   -2.629863
 H   -3.016701   -1.352470   -2.567824
 H   -0.071564    0.330917   -2.901387
