70 
1qtn_ligand_dft.xyz
 C    5.188218   -0.849767    0.310189
 O    4.706150   -1.435442    1.281845
 C    6.600829   -1.142563   -0.138942
 N    4.521872    0.090418   -0.397001
 C    3.107833    0.329339   -0.209994
 C    2.303092   -0.737608   -0.973260
 O    2.810281   -1.503262   -1.778433
 C    2.697430    1.762871   -0.613888
 C    2.865377    2.021903   -2.120268
 C    3.434313    2.787947    0.250112
 C    2.111323    3.263184   -2.598497
 N    0.992666   -0.748797   -0.639076
 C    0.061570   -1.717100   -1.177017
 C   -1.273892   -0.978983   -1.333057
 O   -1.311652    0.060270   -1.981717
 C    0.085919   -3.019157   -0.354207
 C    0.066858   -2.808583    1.168875
 C    1.350717   -2.198332    1.695472
 O    1.395830   -1.240049    2.459411
 O    2.427819   -2.816295    1.267246
 N   -2.359990   -1.469281   -0.687016
 C   -3.680934   -0.880334   -0.884509
 C   -3.859209    0.303376    0.093733
 O   -4.674367    0.282138    1.008995
 C   -4.758463   -1.940918   -0.641101
 O   -4.285324   -3.136404   -1.254116
 C   -6.104578   -1.507790   -1.204115
 C   -1.856664    3.391853    0.267203
 N   -3.004135    1.325174   -0.120497
 O   -1.485881    4.303205    1.182227
 C   -2.803228    2.361378    0.864887
 C   -2.301585    1.799682    2.203619
 C   -1.020918    1.020337    2.030746
 O   -0.249989    1.215305    1.102513
 O   -0.829216    0.121151    2.973066
 O   -1.508710    3.433180   -0.885204
 H    7.006069   -0.382374   -0.811825
 H    6.605898   -2.108886   -0.652664
 H    7.239033   -1.227867    0.742640
 H    4.907127    0.343733   -1.295305
 H    2.904573    0.201912    0.858966
 H    1.627944    1.845798   -0.389079
 H    2.499944    1.153642   -2.681392
 H    3.932939    2.129080   -2.364618
 H    4.514969    2.752109    0.072577
 H    3.088951    3.803402    0.034369
 H    3.261628    2.595382    1.314306
 H    2.495780    4.177013   -2.132933
 H    2.208356    3.382046   -3.682196
 H    1.045164    3.181954   -2.360901
 H    0.636804   -0.046385    0.007038
 H    0.389968   -1.951509   -2.195214
 H   -0.736393   -3.678918   -0.657027
 H    1.008834   -3.544017   -0.614773
 H   -0.765516   -2.175730    1.489601
 H   -0.050033   -3.782112    1.659472
 H    3.245250   -2.280591    1.462253
 H   -2.360630   -2.432579   -0.384919
 H   -3.736370   -0.511715   -1.916261
 H   -4.850664   -2.084712    0.443715
 H   -4.941360   -3.823920   -1.090970
 H   -6.032907   -1.354307   -2.285782
 H   -6.863013   -2.275718   -1.013842
 H   -6.437718   -0.584495   -0.723979
 H   -2.334269    1.261394   -0.887837
 H   -0.896259    4.923415    0.724741
 H   -3.754239    2.872963    1.060773
 H   -2.123319    2.612106    2.915488
 H   -3.068370    1.149034    2.628078
 H    0.035366   -0.356543    2.810095
