27 
1qvt_ligand_aiqm1.xyz
 C  -61.674068  -45.608165    3.207101
 C  -61.781454  -45.712419    1.856039
 C  -62.959012  -46.282808    1.262235
 C  -63.980827  -46.724526    2.066264
 C  -65.944980  -47.464247    6.330719
 C  -65.925276  -47.399864    7.702379
 C  -64.783047  -46.842834    8.372580
 C  -63.723850  -46.380077    7.657078
 C  -62.652247  -45.971440    5.457552
 N  -64.932851  -47.079793    4.214843
 C  -63.899645  -46.629637    3.485023
 C  -63.713952  -46.433041    6.229172
 C  -62.719662  -46.058566    4.070748
 C  -64.851579  -46.988311    5.552114
 N  -63.030284  -46.371128   -0.107245
 N  -66.976520  -47.857247    8.459995
 H  -60.782506  -45.176587    3.650226
 H  -60.979496  -45.366263    1.212546
 H  -64.879924  -47.158633    1.647199
 H  -66.791947  -47.878691    5.798444
 H  -64.776581  -46.796128    9.456469
 H  -62.863760  -45.960275    8.168469
 H  -61.773279  -45.544263    5.936583
 H  -62.280695  -46.045516   -0.682604
 H  -63.837487  -46.763153   -0.549017
 H  -67.784908  -48.250237    8.021266
 H  -66.951261  -47.805649    9.457823
