27 
1qvt_ligand_xtb.xyz
 C  -61.681130  -45.611339    3.214321
 C  -61.796815  -45.719398    1.865478
 C  -62.962202  -46.283631    1.278033
 C  -63.983579  -46.724825    2.085852
 C  -65.932133  -47.458949    6.316690
 C  -65.915495  -47.395914    7.690148
 C  -64.785338  -46.844501    8.353518
 C  -63.722887  -46.379820    7.646588
 C  -62.650915  -45.970710    5.458309
 N  -64.915817  -47.071403    4.224172
 C  -63.897980  -46.628675    3.489180
 C  -63.710161  -46.430987    6.231935
 C  -62.715324  -46.056523    4.072358
 C  -64.847562  -46.986342    5.550978
 N  -63.038843  -46.374102   -0.082704
 N  -66.963480  -47.852341    8.437814
 H  -60.792830  -45.181341    3.656983
 H  -61.003986  -45.377952    1.214096
 H  -64.877212  -47.156398    1.661864
 H  -66.779375  -47.873358    5.792281
 H  -64.790172  -46.803111    9.434118
 H  -62.865157  -45.961102    8.155439
 H  -61.775740  -45.545368    5.935249
 H  -62.287735  -46.048100   -0.659787
 H  -63.852327  -46.768337   -0.514642
 H  -67.768233  -48.244233    7.987801
 H  -66.938671  -47.800740    9.437925
