27 
1qvt_ligand_ani-2x.xyz
 C  -61.661827  -45.602716    3.198712
 C  -61.785291  -45.714544    1.845768
 C  -62.964567  -46.285394    1.260800
 C  -63.978666  -46.722848    2.084487
 C  -65.930332  -47.457839    6.321658
 C  -65.929674  -47.402117    7.698286
 C  -64.792818  -46.847220    8.375384
 C  -63.722629  -46.378845    7.672896
 C  -62.632349  -45.961634    5.468442
 N  -64.906378  -47.066908    4.229302
 C  -63.879479  -46.619864    3.497896
 C  -63.693776  -46.422900    6.245987
 C  -62.695248  -46.046871    4.078222
 C  -64.830157  -46.977803    5.561831
 N  -63.058535  -46.384067   -0.106078
 N  -66.992453  -47.865739    8.434831
 H  -60.762669  -45.167995    3.630833
 H  -60.989209  -45.371563    1.188898
 H  -64.891097  -47.162018    1.694065
 H  -66.764118  -47.867429    5.760522
 H  -64.799821  -46.806738    9.462204
 H  -62.866019  -45.960223    8.197462
 H  -61.751609  -45.533579    5.948357
 H  -62.315256  -46.062729   -0.698218
 H  -63.874559  -46.780302   -0.538064
 H  -67.799161  -48.258387    7.982545
 H  -66.983403  -47.821226    9.436972
