27 
1qvu_ligand_xtb.xyz
 C  -61.806323  -45.215102    2.763931
 C  -62.059292  -45.394576    1.441781
 C  -63.286619  -45.965810    1.006889
 C  -64.227585  -46.340729    1.936546
 C  -65.749658  -46.800235    6.375699
 C  -65.593482  -46.661803    7.734740
 C  -64.393892  -46.098312    8.249382
 C  -63.401238  -45.695620    7.414524
 C  -62.549745  -45.430113    5.110373
 N  -64.944132  -46.549802    4.173522
 C  -63.999133  -46.169361    3.316529
 C  -63.532336  -45.824911    6.010923
 C  -62.755205  -45.590726    3.744999
 C  -64.740886  -46.393256    5.479879
 N  -63.501857  -46.128966   -0.332029
 N  -66.567451  -47.054262    8.608246
 H  -60.871333  -44.780246    3.090517
 H  -61.331333  -45.106066    0.695972
 H  -65.165913  -46.776330    1.629391
 H  -66.651594  -47.225286    5.962971
 H  -64.289141  -45.997273    9.320934
 H  -62.490150  -45.267697    7.810395
 H  -61.624536  -44.997488    5.472475
 H  -62.807654  -45.851594   -0.998808
 H  -64.360466  -46.529784   -0.657388
 H  -67.419087  -47.454199    8.264038
 H  -66.440958  -46.948055    9.596267
