67 
1qxk_ligand_aiqm1.xyz
 C   -3.913856    1.006950   -1.273499
 C   -3.925967   -0.386012   -1.268151
 C   -2.775833   -1.107818   -1.548726
 C   -1.583695   -0.424455   -1.778685
 C   -1.545760    0.970034   -1.714771
 C   -2.724207    1.685076   -1.507587
 O   -5.100122   -0.979230   -0.833912
 C    0.463380    1.686777   -0.357033
 N   -0.293628    2.459721    0.606489
 C   -1.189237    1.994885    1.486087
 C    1.830317    2.385553   -0.474408
 N    2.760406    1.709105   -1.161340
 C    4.093206    2.260935   -1.358005
 C    5.179127    1.337560   -0.824604
 C    5.026422   -0.438509    0.954737
 C    5.080590    1.054717    0.687187
 O    3.863217   -1.020222    0.364117
 O   -1.545288    0.818634    1.544908
 C   -1.782758    3.030970    2.413206
 C   -4.893312   -1.938246    0.199286
 O    2.003088    3.497952    0.012791
 C   -0.216766    1.666284   -1.753189
 C   -3.854790   -1.476255    1.215140
 O   -3.983610   -0.203745    1.535208
 O   -3.002618   -2.221027    1.655357
 C    2.712792   -1.079208    1.090896
 C    2.561890   -0.635762    2.401694
 C    1.341151   -0.855569    3.042031
 C    0.290147   -1.513493    2.421601
 C    0.441612   -1.914549    1.091493
 C    1.637375   -1.673235    0.415912
 C    1.747283   -1.921240   -1.044127
 O    1.850032   -1.027864   -1.860031
 O    1.700235   -3.205933   -1.381498
 C    1.747210   -3.469652   -2.788659
 O   -0.546281   -2.514456    0.389630
 O   -5.051711    1.702770   -1.001158
 H   -2.795551   -2.190083   -1.519868
 H   -0.661977   -0.972701   -1.936161
 H   -2.724227    2.768243   -1.450911
 H    0.598966    0.656749   -0.014499
 H    0.063513    3.397342    0.726574
 H    2.550173    0.769852   -1.481153
 H    4.262232    2.453370   -2.421803
 H    4.105649    3.220080   -0.841315
 H    6.150170    1.773410   -1.068175
 H    5.124673    0.390379   -1.367608
 H    5.081143   -0.681917    2.017533
 H    5.857281   -0.939525    0.455609
 H    5.943332    1.465071    1.215550
 H    4.194345    1.531044    1.113914
 H   -1.234177    3.971933    2.391917
 H   -1.795154    2.636850    3.427590
 H   -2.812977    3.212090    2.109806
 H   -5.862635   -2.069047    0.681235
 H   -4.565775   -2.897808   -0.211901
 H   -0.334818    2.697187   -2.096964
 H    0.445656    1.145185   -2.446182
 H   -3.109969    0.142712    1.827937
 H    3.357676   -0.125127    2.919370
 H    1.211801   -0.502828    4.056556
 H   -0.657447   -1.668627    2.918894
 H    0.888332   -3.022740   -3.284384
 H    1.723586   -4.549555   -2.885036
 H    2.660205   -3.063289   -3.221007
 H   -1.370651   -2.473078    0.898064
 H   -5.699865    1.044232   -0.727233
