66 
1qxl_ligand_aiqm1.xyz
 C    1.241280   -1.531052    0.191508
 N    2.353730   -2.323424    0.208571
 C    2.079942   -3.400891   -0.582415
 N    0.875238   -3.336608   -1.104553
 C    0.351019   -2.154951   -0.642827
 C   -0.945226   -1.639198   -1.100699
 O   -1.288465   -0.470789   -0.928777
 N   -1.702692   -2.543715   -1.746239
 C    3.643217   -1.956213    0.799106
 C    3.997147   -2.886171    1.947327
 O    4.198002   -4.187086    1.408331
 C    4.727818   -1.907105   -0.277429
 C    4.504667   -0.834417   -1.348246
 N    4.644571    0.508097   -0.829539
 C    5.847260    1.038426   -0.396629
 C    5.647663    2.258150    0.186691
 C    4.238467    2.511567    0.132206
 C    3.643267    1.404358   -0.511621
 C    3.416124    3.557097    0.573264
 C    2.047063    3.480022    0.405508
 C    1.464245    2.362905   -0.239879
 C    2.261044    1.334633   -0.727826
 N    0.073178    2.216523   -0.379196
 C   -0.908093    3.142140   -0.130203
 O   -0.693422    4.285613    0.233278
 C   -2.318490    2.626961   -0.311223
 C   -3.040284    2.557450    1.039553
 C   -5.920550   -0.754767   -0.778643
 C   -5.642318   -0.273480    0.503288
 C   -6.638121   -0.379797    1.479390
 C   -7.873897   -0.946720    1.183390
 C   -8.138786   -1.417648   -0.099607
 C   -7.156396   -1.320811   -1.080989
 C   -4.413624    1.896806    0.928069
 C   -4.317841    0.372642    0.815206
 H    1.179275   -0.594764    0.718483
 H    2.782455   -4.202174   -0.724047
 H   -1.315820   -3.454550   -1.919068
 H   -2.575172   -2.268131   -2.156198
 H    3.510180   -0.962100    1.226323
 H    4.907850   -2.520708    2.430312
 H    3.182147   -2.884243    2.674930
 H    4.299519   -4.811666    2.125434
 H    4.797414   -2.884017   -0.754234
 H    5.683081   -1.722502    0.218677
 H    3.516892   -0.933431   -1.792993
 H    5.238574   -0.971656   -2.144129
 H    6.760525    0.486880   -0.564333
 H    6.416728    2.891327    0.595065
 H    3.849695    4.424226    1.056627
 H    1.410579    4.278086    0.751848
 H    1.806663    0.502040   -1.248864
 H   -0.250523    1.307170   -0.688699
 H   -2.327973    1.657723   -0.807300
 H   -2.835843    3.342741   -0.955059
 H   -2.426805    1.991467    1.750750
 H   -3.131488    3.570064    1.440448
 H   -5.157637   -0.677210   -1.546634
 H   -6.442943   -0.011291    2.480934
 H   -8.630617   -1.017338    1.954626
 H   -9.100393   -1.855579   -0.331983
 H   -7.354331   -1.683110   -2.082212
 H   -5.020887    2.151521    1.802882
 H   -4.943975    2.298369    0.057884
 H   -3.589819    0.097548    0.048346
 H   -3.936404   -0.019539    1.763981
