66 
1qxl_ligand_dft.xyz
 C    1.254826   -1.401796    0.462569
 N    2.306254   -2.272886    0.402435
 C    1.817687   -3.442891   -0.118045
 N    0.537149   -3.365883   -0.384514
 C    0.178652   -2.083632   -0.040102
 C   -1.178571   -1.542223   -0.237861
 O   -1.405081   -0.329095   -0.177391
 N   -2.128343   -2.462058   -0.483325
 C    3.699978   -1.941246    0.705085
 C    4.287383   -2.902226    1.731411
 O    4.481494   -4.160933    1.118434
 C    4.537547   -1.872177   -0.577646
 C    4.126461   -0.737941   -1.522687
 N    4.324687    0.576327   -0.945560
 C    5.556155    1.087589   -0.571689
 C    5.403482    2.304740    0.020537
 C    3.996569    2.588446    0.029304
 C    3.353132    1.492825   -0.588098
 C    3.209905    3.652739    0.493659
 C    1.834508    3.606556    0.372909
 C    1.208380    2.497405   -0.241539
 C    1.967723    1.452400   -0.759839
 N   -0.189331    2.359402   -0.326927
 C   -1.155622    3.317286   -0.159669
 O   -0.936790    4.491563    0.094937
 C   -2.568429    2.777585   -0.311989
 C   -3.393440    2.931721    0.974977
 C   -4.975079   -0.605269   -0.921856
 C   -5.217766   -0.388526    0.441131
 C   -6.271121   -1.078326    1.041702
 C   -7.060164   -1.961729    0.307501
 C   -6.805415   -2.172781   -1.043692
 C   -5.757390   -1.489853   -1.658773
 C   -4.657318    2.065175    0.918266
 C   -4.348082    0.577275    1.206815
 H    1.357377   -0.398404    0.844213
 H    2.451342   -4.305973   -0.257975
 H   -1.870777   -3.435555   -0.550908
 H   -3.084639   -2.170228   -0.637019
 H    3.677728   -0.947805    1.166323
 H    5.239830   -2.481745    2.087217
 H    3.600434   -2.969757    2.586333
 H    4.731215   -4.797617    1.796940
 H    4.470976   -2.827198   -1.107651
 H    5.588165   -1.744647   -0.292633
 H    3.072229   -0.836468   -1.794543
 H    4.702990   -0.816709   -2.451343
 H    6.457993    0.527194   -0.779471
 H    6.196640    2.934424    0.398247
 H    3.678639    4.513689    0.961864
 H    1.215360    4.415872    0.733670
 H    1.474204    0.631959   -1.271144
 H   -0.522322    1.403910   -0.437751
 H   -2.546999    1.727487   -0.617448
 H   -3.051371    3.345178   -1.115807
 H   -2.789047    2.634771    1.842260
 H   -3.640074    3.988411    1.115826
 H   -4.157262   -0.071294   -1.402439
 H   -6.473662   -0.923635    2.098783
 H   -7.876412   -2.487576    0.794910
 H   -7.419963   -2.860948   -1.616404
 H   -5.552049   -1.643717   -2.714593
 H   -5.406006    2.427926    1.631835
 H   -5.112056    2.163448   -0.076073
 H   -3.304531    0.369840    0.944809
 H   -4.441807    0.391811    2.283083
