23 
1qy2_ligand_aiqm1.xyz
 C   48.298933   25.500692   42.257102
 C   49.011108   24.916378   41.041274
 C   47.993803   24.336342   40.047198
 C   50.017640   23.856749   41.430363
 N   49.878026   23.193422   42.566253
 C   50.779725   22.230012   42.846838
 C   51.811549   21.933703   41.988692
 N   51.978325   22.595531   40.826026
 C   51.096156   23.531175   40.563264
 O   51.184736   24.241210   39.422265
 C   52.265857   23.908138   38.553313
 H   47.732804   24.724913   42.771223
 H   49.008831   25.926490   42.967687
 H   47.607641   26.282919   41.941230
 H   49.561549   25.715173   40.534426
 H   48.485744   23.943517   39.155454
 H   47.425836   23.530524   40.519205
 H   47.288656   25.111478   39.742075
 H   50.653461   21.695613   43.778581
 H   52.529849   21.156421   42.214429
 H   53.223207   24.057904   39.051289
 H   52.192855   22.870375   38.229392
 H   52.168606   24.578722   37.705824
