23 
1qy2_ligand_dft.xyz
 C   -2.904707    0.131691   -0.749172
 C   -1.672203   -0.608232   -0.231049
 C   -1.956585   -1.283584    1.121196
 C   -0.472504    0.304942   -0.102371
 N   -0.650086    1.607731    0.029381
 C    0.436749    2.385420    0.171871
 C    1.708139    1.852563    0.178304
 N    1.920113    0.532947    0.046087
 C    0.848448   -0.220108   -0.086674
 O    0.976763   -1.551218   -0.218613
 C    2.299362   -2.072186   -0.216804
 H   -3.212788    0.914733   -0.050884
 H   -2.706996    0.608451   -1.714138
 H   -3.734925   -0.571626   -0.873954
 H   -1.403939   -1.396517   -0.944728
 H   -1.086325   -1.843904    1.475632
 H   -2.217567   -0.531441    1.874231
 H   -2.796800   -1.980069    1.028935
 H    0.268123    3.452951    0.278449
 H    2.588535    2.479733    0.289344
 H    2.885422   -1.654805   -1.040506
 H    2.807671   -1.845998    0.724837
 H    2.185113   -3.149543   -0.338391
