56 
1r0p_ligand_ani-2x.xyz
 O    4.712481    0.405991   -1.586824
 C    3.875408   -0.354274   -1.143414
 O    4.178213   -1.512163   -0.550422
 C    5.574419   -1.746359   -0.336462
 C    2.387135   -0.046430   -1.181565
 O    2.155224    0.874851   -2.200582
 C    1.930182    0.472562    0.251197
 O    1.781397   -0.745081    0.973048
 C    2.945345    1.299914    1.032375
 N    0.641939    1.204213    0.163802
 C   -0.625896    0.637870    0.285580
 C   -1.002484   -0.703950    0.410399
 N   -0.209552   -1.838131    0.402920
 C    1.221454   -1.749428    0.145625
 C    1.527746   -1.313994   -1.321696
 C   -1.040886   -2.942749    0.482464
 C   -0.712614   -4.300083    0.492856
 C   -1.749017   -5.210944    0.592961
 C   -3.086645   -4.786097    0.678352
 C   -3.406232   -3.441865    0.661748
 C   -2.374537   -2.502258    0.560229
 C   -2.348115   -1.068239    0.505222
 C   -3.320327   -0.058516    0.475174
 C   -4.807145   -0.141348    0.586318
 O   -5.535276   -1.104457    0.747329
 C   -2.956106    1.274428    0.306937
 C   -4.192820    2.137738    0.287568
 N   -5.235447    1.154307    0.469364
 C   -1.607795    1.623738    0.181831
 C   -0.915373    2.848314   -0.098331
 C    0.450572    2.547646   -0.155130
 C    1.385645    3.527847   -0.506171
 C   -1.354044    4.159962   -0.323602
 C   -0.429540    5.136815   -0.631209
 C    0.935247    4.815997   -0.728791
 H    6.005565   -0.937327    0.259957
 H    6.108153   -1.813511   -1.288498
 H    5.630399   -2.691941    0.202651
 H    2.966563    1.402633   -2.255083
 H    3.600516    0.611348    1.569068
 H    3.554331    1.954931    0.404730
 H    2.395221    1.901519    1.757055
 H    1.667336   -2.706646    0.427742
 H    0.594378   -1.025722   -1.815468
 H    2.010028   -2.098892   -1.908528
 H    0.324433   -4.619270    0.419689
 H   -1.523535   -6.273945    0.605619
 H   -3.877642   -5.527106    0.756683
 H   -4.433900   -3.097412    0.724952
 H   -4.200660    2.877612    1.099541
 H   -4.313497    2.670201   -0.665756
 H   -6.218179    1.369837    0.516681
 H    2.437249    3.288953   -0.617900
 H   -2.410008    4.408403   -0.257804
 H   -0.759486    6.156631   -0.807281
 H    1.649876    5.593681   -0.982451
