21 
1r5y_ligand_ani-2x.xyz
 C   18.216743   17.091740   19.243934
 N   19.137359   17.378573   18.238984
 C   16.941733   16.578951   18.915606
 C   15.999889   16.343208   19.889411
 C   16.274212   16.601283   21.244873
 N   15.287780   16.343818   22.187880
 C   15.595152   16.579393   23.416139
 N   14.671622   16.390170   24.423764
 N   16.812077   17.075733   23.838945
 C   17.857800   17.401774   22.973351
 O   18.893626   17.872892   23.400632
 C   17.542219   17.112018   21.566405
 C   18.497051   17.355959   20.577714
 H   19.023396   16.838885   17.393634
 H   20.102825   17.403338   18.536748
 H   16.707061   16.375585   17.872399
 H   15.020157   15.949418   19.633756
 H   13.860342   15.882735   24.095469
 H   15.034553   16.027520   25.294274
 H   16.957929   17.337355   24.808081
 H   19.461773   17.761654   20.878298
