20 
1r9l_ligand_xtb.xyz
 N   26.773994   23.009779   72.717001
 C   25.338560   22.655838   72.572123
 C   24.577249   22.446574   73.911098
 O   25.101900   22.560784   74.975661
 O   23.308014   22.133306   73.768541
 C   27.353774   23.173723   71.368543
 C   26.923347   24.278840   73.459972
 C   27.504348   21.937398   73.425150
 H   25.263942   21.729910   71.992431
 H   24.835761   23.455793   72.018706
 H   22.958604   22.061882   72.869226
 H   26.843344   23.967792   70.825745
 H   28.407642   23.434168   71.447801
 H   27.270128   22.248642   70.800269
 H   26.524848   24.171204   74.467271
 H   27.976508   24.543130   73.527589
 H   26.394126   25.081225   72.949075
 H   28.559558   22.193636   73.491703
 H   27.109409   21.818659   74.432605
 H   27.407044   20.995119   72.888891
