26 
1rdi_ligand_dft.xyz
 C   -1.141001   -0.046631    0.665840
 C   -0.160575   -1.212861    0.568648
 C    0.791125   -1.005927   -0.605631
 C    1.483428    0.348241   -0.480418
 C    0.434037    1.451415   -0.327255
 C    1.050124    2.805096   -0.029840
 O   -1.986236   -0.161257   -0.454493
 O   -0.824890   -2.456109    0.462217
 O    1.790862   -2.006874   -0.606868
 O    2.345394    0.345461    0.633513
 O   -0.482156    1.179867    0.737703
 C   -3.074367    0.740538   -0.435602
 H   -1.734351   -0.110846    1.587866
 H    0.426418   -1.242046    1.489981
 H    0.214794   -1.032265   -1.542944
 H    2.046926    0.548356   -1.407114
 H   -0.127328    1.493086   -1.272615
 H    1.608660    2.759611    0.907461
 H    1.735197    3.094198   -0.832848
 H    0.267639    3.563983    0.055643
 H   -1.523146   -2.322513   -0.196036
 H    1.339786   -2.833504   -0.382135
 H    2.794664   -0.512365    0.603192
 H   -3.654906    0.556766   -1.341179
 H   -2.725575    1.779055   -0.425692
 H   -3.709197    0.570557    0.445392
