86 
1rhk_ligand_ani-2x.xyz
 C   -7.529627    0.750835   -0.695984
 O   -7.276158    0.039839   -1.663334
 C   -8.932123    0.962137   -0.178984
 N   -6.551896    1.436124   -0.026595
 C   -5.159972    1.158545   -0.305135
 C   -4.648890    0.060441    0.642398
 O   -5.081846   -0.062206    1.776748
 C   -4.313738    2.430353   -0.168311
 C   -2.911923    2.234462   -0.689258
 O   -1.995688    2.904781   -0.026205
 O   -2.667838    1.509164   -1.651777
 N   -3.680979   -0.731639    0.099763
 C   -2.986000   -1.750964    0.839436
 C   -1.613011   -1.223455    1.290957
 O   -1.039497   -0.319191    0.695181
 C   -2.815652   -3.013440   -0.024950
 C   -4.153877   -3.620730   -0.465685
 C   -4.899973   -2.691677   -1.403086
 O   -6.142153   -2.437689   -0.987900
 O   -4.411116   -2.239104   -2.416282
 N   -1.044490   -1.835852    2.363083
 C    0.238966   -1.366953    2.860037
 C    1.260484   -1.446437    1.716439
 O    1.479745   -2.473883    1.093664
 C    0.694424   -2.147559    4.107640
 C    1.935305   -1.492450    4.716066
 C    0.942704   -3.632720    3.835948
 N    1.913135   -0.280348    1.450469
 C    2.644868   -0.095919    0.211078
 C    3.446019    1.218188    0.352311
 O    2.694448    2.250242    0.960038
 C    1.756895   -0.247812   -1.037667
 C    0.584628    0.692088   -1.211044
 O    0.468128    1.782942   -0.653517
 O   -0.278948    0.255873   -2.098057
 C    4.086907    1.670850   -0.957368
 C    5.037169    2.848013   -0.745485
 C    5.693296    3.343553   -2.043478
 C    6.466357    2.269484   -2.779058
 C    6.049276    1.815878   -4.031786
 C    6.743056    0.809942   -4.699932
 C    7.872913    0.242143   -4.121261
 C    8.301578    0.685436   -2.873258
 C    7.601250    1.686725   -2.208151
 H   -9.630423    0.439464   -0.832627
 H   -9.176741    2.028034   -0.158067
 H   -9.031847    0.570936    0.839064
 H   -6.747720    1.664586    0.941588
 H   -5.108953    0.813279   -1.340822
 H   -4.785171    3.213130   -0.771520
 H   -4.271974    2.776881    0.868117
 H   -1.101758    2.636600   -0.351760
 H   -3.238486   -0.414937   -0.753287
 H   -3.609428   -1.980517    1.712675
 H   -2.244692   -3.759482    0.540373
 H   -2.228508   -2.759608   -0.916417
 H   -4.789553   -3.863993    0.391085
 H   -3.962293   -4.543549   -1.024275
 H   -6.514326   -1.709602   -1.532517
 H   -1.544459   -2.544224    2.877694
 H    0.125664   -0.309815    3.134355
 H   -0.130394   -2.057668    4.830695
 H    2.796924   -1.580914    4.043563
 H    1.771957   -0.427302    4.917153
 H    2.202191   -1.974813    5.662680
 H    1.178648   -4.153215    4.770261
 H    1.778894   -3.761073    3.142687
 H    0.070906   -4.121318    3.387590
 H    1.609206    0.579488    1.890812
 H    3.371965   -0.912236    0.139074
 H    4.248573    0.996071    1.069808
 H    1.909799    2.396479    0.403598
 H    1.359009   -1.266688   -1.047472
 H    2.370515   -0.157433   -1.943584
 H   -1.075266    0.840508   -2.075189
 H    3.297280    1.959997   -1.667765
 H    4.626356    0.821813   -1.398929
 H    4.483847    3.667404   -0.269690
 H    5.822601    2.554200   -0.034676
 H    4.919602    3.745998   -2.710010
 H    6.359959    4.183765   -1.805635
 H    5.165261    2.259081   -4.488438
 H    6.399351    0.472112   -5.675321
 H    8.418911   -0.542347   -4.639973
 H    9.184605    0.247095   -2.413392
 H    7.944213    2.025401   -1.230715
