24 
1rin_ligand_ani-2x.xyz
 C   -1.303885   -1.446902   -0.245966
 C   -1.967267   -0.105725    0.038280
 C   -1.067928    1.025451   -0.431956
 C    0.313988    0.868514    0.184411
 C    0.885570   -0.506367   -0.170531
 C    2.207483   -0.799251    0.519378
 O   -1.298947   -1.600911   -1.642303
 O   -2.174463   -0.005126    1.428560
 O   -1.653404    2.237916    0.002896
 O    1.087343    1.937568   -0.316653
 O   -0.004382   -1.524129    0.289055
 O    3.154565    0.186124    0.114595
 H   -1.873734   -2.250088    0.237251
 H   -2.917736   -0.072316   -0.514981
 H   -0.976538    1.001225   -1.528580
 H    0.211868    0.929336    1.281864
 H    1.013816   -0.566283   -1.263172
 H    2.040970   -0.766319    1.605049
 H    2.543281   -1.806846    0.245483
 H   -0.822804   -2.419008   -1.840190
 H   -2.375107    0.930243    1.582558
 H   -0.964167    2.914166   -0.081533
 H    2.020683    1.696114   -0.190688
 H    3.920793    0.142813    0.697074
