24 
1rin_ligand_xtb.xyz
 C   -1.281838   -1.446661   -0.259551
 C   -1.977021   -0.107731    0.017224
 C   -1.070676    1.049447   -0.412007
 C    0.313032    0.891937    0.231611
 C    0.887635   -0.477183   -0.151823
 C    2.222104   -0.757149    0.544610
 O   -1.304703   -1.651489   -1.640768
 O   -2.280822   -0.028455    1.382474
 O   -1.677376    2.250957    0.002920
 O    1.109155    1.964544   -0.213000
 O    0.019550   -1.521408    0.255065
 O    3.193976    0.156775    0.076832
 H   -1.823390   -2.238566    0.279288
 H   -2.897376   -0.081077   -0.585817
 H   -0.955048    1.032737   -1.505516
 H    0.196434    0.928784    1.328273
 H    1.035397   -0.499253   -1.243083
 H    2.079784   -0.660267    1.628399
 H    2.512720   -1.790731    0.323239
 H   -0.881105   -2.496636   -1.835442
 H   -2.485112    0.901975    1.555809
 H   -1.011707    2.943098   -0.095108
 H    2.035438    1.687114   -0.168630
 H    4.040949   -0.050562    0.484901
