24 
1rin_ligand_aiqm1.xyz
 C   -1.284401   -1.440246   -0.254320
 C   -1.957700   -0.102996    0.014448
 C   -1.057160    1.035174   -0.422809
 C    0.319419    0.877265    0.196980
 C    0.899602   -0.486115   -0.168191
 C    2.204775   -0.785019    0.541896
 O   -1.285498   -1.619423   -1.651600
 O   -2.214051   -0.039111    1.404198
 O   -1.668874    2.243349    0.010108
 O    1.089335    1.970694   -0.277899
 O    0.018612   -1.519207    0.275591
 O    3.177490    0.166159    0.105533
 H   -1.831678   -2.234534    0.250751
 H   -2.892463   -0.061543   -0.553544
 H   -0.960193    1.023267   -1.512880
 H    0.227288    0.925465    1.291777
 H    1.044414   -0.542959   -1.255262
 H    2.051665   -0.710320    1.621886
 H    2.519078   -1.801543    0.296174
 H   -0.964561   -2.504686   -1.835268
 H   -2.418642    0.882794    1.585510
 H   -1.016874    2.937666   -0.109418
 H    2.019348    1.753122   -0.161748
 H    3.981070    0.032947    0.607988
