74 
1rjk_ligand_xtb.xyz
 O   -7.676244    2.614844    1.735431
 C   -6.721896    1.646849    1.363683
 C   -7.364918    0.290501    1.263303
 C   -8.656645    0.077400    1.445251
 C   -6.388843   -0.802337    0.903097
 O   -5.382957   -0.959309    1.889407
 C   -5.684962   -0.461056   -0.421123
 C   -6.066801    1.969272    0.002866
 C   -5.068917    0.902753   -0.339691
 C   -3.770783    1.191847   -0.492205
 C   -2.709544    0.260294   -0.779216
 C   -1.418607    0.554992   -0.974883
 C   -0.815318    1.932088   -0.965287
 C    0.320354    2.025069    0.059643
 C   -0.361774   -0.475440   -1.232081
 C    0.717866   -0.462102   -0.119255
 C    1.365119    0.925679   -0.136172
 C    0.090296   -0.753393    1.246020
 C   -0.728707   -1.948913   -1.349342
 C    0.612258   -2.671977   -1.138900
 C    1.620526   -1.629607   -0.589469
 C    2.581960   -2.277545    0.421444
 C    3.340483   -3.426031   -0.251960
 C    3.584337   -1.315215    1.076373
 C    4.551014   -0.626545    0.115674
 C    5.432602    0.379588    0.853473
 C    6.574576    0.948175   -0.012588
 C    6.038217    1.684858   -1.239992
 C    7.421468    1.904670    0.838725
 O    7.387768   -0.104335   -0.508640
 H   -7.250857    3.478682    1.722287
 H   -5.920845    1.595036    2.122246
 H   -9.087280   -0.905765    1.351513
 H   -9.319473    0.887123    1.691334
 H   -6.936759   -1.752192    0.784368
 H   -5.808817   -1.103262    2.740996
 H   -6.434603   -0.481078   -1.216927
 H   -4.941599   -1.229203   -0.620472
 H   -5.588050    2.950902    0.051729
 H   -6.860850    2.008549   -0.749238
 H   -3.483540    2.230594   -0.391491
 H   -3.000067   -0.777649   -0.830529
 H   -1.557464    2.699112   -0.749867
 H   -0.407559    2.137196   -1.960851
 H    0.804595    3.000980   -0.029204
 H   -0.098970    1.957082    1.064480
 H    0.146793   -0.189488   -2.163060
 H    2.118359    1.020325    0.645461
 H    1.862138    1.077428   -1.098456
 H   -0.167489   -1.803452    1.339880
 H    0.779870   -0.501175    2.048413
 H   -0.821673   -0.176923    1.379768
 H   -1.437550   -2.231316   -0.572477
 H   -1.174915   -2.181661   -2.315868
 H    0.489275   -3.492779   -0.432240
 H    0.977236   -3.096197   -2.073633
 H    2.219453   -1.260194   -1.428245
 H    1.984450   -2.705135    1.234376
 H    2.669878   -4.236082   -0.524035
 H    4.092978   -3.826115    0.424388
 H    3.838174   -3.082171   -1.155065
 H    3.040650   -0.556056    1.639405
 H    4.165506   -1.889337    1.804547
 H    3.989669   -0.109649   -0.659963
 H    5.193797   -1.364996   -0.364539
 H    5.876132   -0.112982    1.725269
 H    4.824405    1.208820    1.220161
 H    5.299385    2.424862   -0.946583
 H    6.857100    2.180418   -1.754302
 H    5.589212    0.974885   -1.927223
 H    7.787399    1.401769    1.733001
 H    8.276777    2.250772    0.263048
 H    6.831979    2.765034    1.142940
 H    7.761519   -0.580190    0.241171
