41 
1ro6_ligand_ani-2x.xyz
 C   -1.499274    0.372017    0.958788
 C   -0.200368    0.591114    0.493619
 C    0.714900   -0.449342    0.369844
 C    0.341726   -1.746050    0.758272
 C   -0.951461   -1.969459    1.210012
 C   -1.866696   -0.927192    1.306182
 C   -2.475812    1.535204    0.997754
 C   -3.458275    1.522331   -0.191344
 C   -4.769932    0.982347    0.365445
 O   -5.764125    0.689594   -0.266507
 N   -4.626626    0.906974    1.723803
 C   -3.413166    1.522645    2.229332
 O    1.980851   -0.179323   -0.085225
 C    2.325425   -0.782662   -1.346738
 C    3.791279   -0.451396   -1.583993
 C    3.770940    1.025865   -2.033750
 C    2.339137    1.288370   -2.573020
 C    1.608708   -0.066685   -2.487579
 O    1.211833   -2.806557    0.668604
 C    2.274074   -2.762861    1.612860
 H    0.116835    1.592971    0.215945
 H   -1.224434   -2.981707    1.491014
 H   -2.867081   -1.139243    1.672609
 H   -1.876051    2.451180    0.997736
 H   -3.649969    2.526799   -0.586070
 H   -3.121024    0.903176   -1.026083
 H   -5.442232    0.743939    2.297667
 H   -3.595419    2.549148    2.582435
 H   -2.995226    0.947851    3.063311
 H    2.113779   -1.854836   -1.304951
 H    4.188004   -1.095394   -2.379013
 H    4.389286   -0.622757   -0.684261
 H    4.539125    1.217735   -2.789453
 H    3.983600    1.686836   -1.189915
 H    2.340129    1.686593   -3.592383
 H    1.832535    2.023196   -1.940099
 H    0.529690    0.020240   -2.319401
 H    1.751364   -0.648734   -3.406556
 H    1.890636   -2.872512    2.635483
 H    2.929769   -3.605188    1.380788
 H    2.833346   -1.824525    1.530939
