60 
1ros_ligand_xtb.xyz
 N   -3.572159    0.184580   -0.761851
 C   -2.877235   -0.091019    0.409613
 C   -1.839826   -1.080284    0.030195
 C   -1.964068   -1.333651   -1.338609
 C   -1.126057   -2.222652   -1.978676
 C   -0.153332   -2.859212   -1.213220
 C   -0.031449   -2.608579    0.144217
 C   -0.875820   -1.709824    0.788462
 C   -3.075319   -0.501701   -1.861516
 O   -3.492252   -0.398646   -2.987107
 O   -3.113134    0.401112    1.483552
 C   -4.637281    1.161979   -0.845042
 C   -4.160192    2.445195   -1.530228
 C   -2.973448    3.051339   -0.783224
 C   -2.193431    4.075705   -1.625384
 C   -0.834104    4.356509   -1.004401
 O   -0.482946    5.474447   -0.708997
 C    0.006840    3.163206   -0.741320
 C    0.844851    3.185120    0.372466
 C    1.583841    2.074500    0.721202
 C    1.528373    0.911873   -0.047115
 C    0.726760    0.909625   -1.189057
 C   -0.030736    2.010915   -1.527447
 C    2.283146   -0.286078    0.334634
 C    2.404379   -0.654561    1.670521
 C    3.090288   -1.795319    2.046126
 C    3.687259   -2.598654    1.078942
 C    3.577430   -2.230420   -0.264838
 C    2.885083   -1.098317   -0.627840
 O    4.378537   -3.739421    1.325471
 C    4.571568   -4.154330    2.664248
 C    5.408537   -5.423253    2.637886
 C   -3.425609    3.738747    0.493395
 O   -4.532070    4.149930    0.710687
 O   -2.416468    3.858269    1.356640
 H   -1.227083   -2.412807   -3.036062
 H    0.520774   -3.558737   -1.684017
 H    0.735197   -3.115947    0.709145
 H   -0.784253   -1.507983    1.843800
 H   -4.961128    1.371651    0.176614
 H   -5.463070    0.725142   -1.411967
 H   -3.874254    2.209449   -2.556341
 H   -4.984357    3.158709   -1.548965
 H   -2.277976    2.261100   -0.486976
 H   -2.045533    3.677656   -2.631246
 H   -2.748932    5.011871   -1.706210
 H    0.884234    4.085347    0.966570
 H    2.226135    2.109819    1.588409
 H    0.676928    0.021595   -1.801620
 H   -0.638761    1.972649   -2.419436
 H    1.932331   -0.053900    2.433760
 H    3.151162   -2.048653    3.093026
 H    4.053290   -2.854722   -1.004619
 H    2.830097   -0.822339   -1.670064
 H    3.601258   -4.350077    3.142240
 H    5.090391   -3.368768    3.230597
 H    5.578752   -5.774764    3.651364
 H    4.894121   -6.195854    2.073097
 H    6.365271   -5.226189    2.162316
 H   -2.704353    4.318620    2.161101
