60 
1ros_ligand_aiqm1.xyz
 N   -3.531050    0.081835   -0.802746
 C   -3.151434   -0.151650    0.518032
 C   -1.997217   -1.091680    0.433584
 C   -1.753456   -1.365992   -0.909959
 C   -0.728439   -2.208385   -1.302984
 C    0.071215   -2.763780   -0.295294
 C   -0.174257   -2.482875    1.052135
 C   -1.222302   -1.640213    1.439089
 C   -2.733042   -0.591759   -1.723538
 O   -2.850114   -0.512572   -2.926430
 O   -3.677644    0.334771    1.491256
 C   -4.557364    1.036342   -1.188510
 C   -3.970042    2.323941   -1.758516
 C   -2.967362    3.009293   -0.832162
 C   -2.211543    4.161520   -1.537996
 C   -0.878590    4.455633   -0.863491
 O   -0.637267    5.545941   -0.393178
 C    0.077910    3.314001   -0.728076
 C    0.935283    3.294637    0.376976
 C    1.717417    2.177392    0.643356
 C    1.677640    1.057863   -0.198586
 C    0.871874    1.112119   -1.343380
 C    0.075473    2.220595   -1.604304
 C    2.408596   -0.183406    0.130544
 C    2.540303   -0.595848    1.455476
 C    3.154076   -1.803844    1.792007
 C    3.655819   -2.623186    0.777738
 C    3.553599   -2.209602   -0.555486
 C    2.938852   -1.007974   -0.870195
 O    4.245049   -3.830217    0.979624
 C    4.435224   -4.253637    2.324108
 C    5.143178   -5.585969    2.269849
 C   -3.644221    3.558568    0.401451
 O   -4.800699    3.881656    0.477217
 O   -2.768508    3.684460    1.414996
 H   -0.553027   -2.417050   -2.349851
 H    0.900154   -3.408043   -0.565009
 H    0.469437   -2.911807    1.810169
 H   -1.420076   -1.415496    2.478000
 H   -5.154433    1.244626   -0.303563
 H   -5.191917    0.564230   -1.940394
 H   -3.470136    2.092277   -2.701154
 H   -4.790145    3.007218   -1.970156
 H   -2.217445    2.300690   -0.490646
 H   -2.024597    3.874526   -2.574641
 H   -2.797140    5.082726   -1.543096
 H    0.951545    4.153222    1.035998
 H    2.363806    2.172801    1.512918
 H    0.841706    0.262906   -2.014648
 H   -0.553134    2.231144   -2.488467
 H    2.129370    0.024326    2.242967
 H    3.231202   -2.093530    2.830743
 H    3.959956   -2.851981   -1.324497
 H    2.875341   -0.701375   -1.907278
 H    3.465050   -4.347751    2.822099
 H    5.031873   -3.513193    2.863736
 H    5.310313   -5.953856    3.281850
 H    4.542290   -6.314743    1.726911
 H    6.105611   -5.485026    1.770069
 H   -3.252356    4.055178    2.162232
