24 
1rpj_ligand_aiqm1.xyz
 C    1.188914   -0.960321   -0.129741
 C    1.672152    0.483947   -0.103320
 C    0.640261    1.358872    0.589758
 C   -0.731688    1.152067   -0.041213
 C   -1.078325   -0.340523   -0.106665
 C   -2.364766   -0.601645   -0.857559
 O    2.151781   -1.701619   -0.819477
 O    2.879729    0.602179    0.628741
 O    0.503965    0.993527    1.960007
 O   -1.719860    1.873917    0.663330
 O   -0.042500   -1.043546   -0.807742
 O   -2.725236   -1.970038   -0.826964
 H    1.068698   -1.343469    0.893934
 H    1.802881    0.826985   -1.134692
 H    0.940497    2.406386    0.515859
 H   -0.708428    1.552336   -1.059392
 H   -1.161782   -0.740254    0.913160
 H   -3.171108   -0.051648   -0.376706
 H   -2.262217   -0.243097   -1.889343
 H    1.807719   -2.588261   -0.943409
 H    3.496991   -0.038397    0.267412
 H    1.378902    1.056239    2.351085
 H   -1.525509    1.776746    1.601896
 H   -2.041171   -2.460284   -1.288859
