19 
1rrw_ligand_aiqm1.xyz
 C   51.195306   45.691581   74.545939
 N   49.974688   46.466881   74.597332
 C   49.536782   47.402143   73.688242
 N   48.392047   47.944174   74.013233
 C   48.055290   47.331939   75.202483
 C   46.914886   47.517934   76.057648
 O   45.953286   48.248507   75.960723
 N   47.018066   46.650192   77.187503
 C   48.042605   45.788548   77.446273
 N   47.976150   45.109334   78.639598
 N   49.072343   45.611742   76.671938
 C   49.027953   46.419684   75.572138
 H   51.203124   45.065536   73.654643
 H   52.057850   46.356079   74.532360
 H   51.231580   45.064650   75.433503
 H   50.108537   47.638689   72.805483
 H   46.287405   46.775388   77.872444
 H   48.645987   44.359283   78.697583
 H   47.056615   44.857518   78.959436
