19 
1rrw_ligand_xtb.xyz
 C   51.191237   45.690112   74.533931
 N   49.988836   46.471069   74.592734
 C   49.550905   47.418883   73.705849
 N   48.418066   47.953528   74.037954
 C   48.059593   47.342865   75.209382
 C   46.914005   47.512920   76.051473
 O   45.950858   48.237149   75.964028
 N   47.008311   46.634186   77.164428
 C   48.017842   45.754972   77.419914
 N   47.924173   45.002170   78.539418
 N   49.057387   45.606018   76.648546
 C   49.040964   46.412192   75.561683
 H   51.208669   45.083071   73.626757
 H   52.069201   46.338848   74.543317
 H   51.208335   45.040873   75.407380
 H   50.108875   47.677884   72.827972
 H   46.229949   46.696741   77.809537
 H   48.660984   44.350620   78.732435
 H   47.142308   45.075699   79.161760
