22 
1rry_ligand_aiqm1.xyz
 C   51.336831   47.181638   71.656005
 C   50.075799   47.822507   72.183020
 O   49.739066   47.129417   73.401428
 C   48.618261   47.590047   74.002447
 O   47.974856   48.499418   73.545581
 C   48.333566   46.831061   75.246373
 C   49.153720   45.805990   75.643777
 N   49.002590   45.038093   76.753341
 C   47.957760   45.312801   77.492957
 N   47.700157   44.542939   78.582391
 N   47.088825   46.308458   77.203441
 C   47.175043   47.153565   76.067077
 O   46.320525   48.001934   75.922252
 H   52.146898   47.277767   72.379398
 H   51.172921   46.122917   71.453830
 H   51.637499   47.670524   70.729621
 H   49.243945   47.728858   71.485314
 H   50.214402   48.879754   72.408193
 H   50.014198   45.562486   75.036817
 H   48.445665   43.922786   78.846458
 H   47.129270   44.905189   79.323558
 H   46.275204   46.475251   77.777320
