22 
1rry_ligand_xtb.xyz
 C   51.331277   47.180720   71.624473
 C   50.076428   47.818500   72.190680
 O   49.733567   47.139630   73.397923
 C   48.622625   47.584526   74.021137
 O   47.959725   48.492717   73.594229
 C   48.355580   46.819277   75.255904
 C   49.184049   45.807229   75.669397
 N   49.012080   45.070029   76.774428
 C   47.966197   45.342200   77.516105
 N   47.763162   44.621058   78.633147
 N   47.086982   46.317832   77.199984
 C   47.188657   47.146945   76.051859
 O   46.339504   47.982886   75.879279
 H   52.147329   47.263040   72.337396
 H   51.155589   46.128445   71.417537
 H   51.611789   47.682603   70.703025
 H   49.237363   47.741577   71.489693
 H   50.233099   48.880329   72.412914
 H   50.058137   45.549340   75.088869
 H   48.427399   43.900934   78.851883
 H   46.980993   44.785158   79.239753
 H   46.285468   46.508425   77.790988
