23 
1rs2_ligand_dft.xyz
 N    1.731576   -0.647146   -0.000355
 C    0.597427   -1.502764   -0.000554
 C   -0.621417   -0.762926   -0.000887
 C   -0.651965    0.592558   -0.000470
 N    0.473719    1.366575   -0.000612
 C    1.723165    0.740016   -0.000186
 N   -1.942329   -1.208707    0.000256
 C   -2.816337   -0.146894    0.000575
 N   -1.966388    0.989123    0.000376
 N   -4.088996   -0.231984    0.000358
 C    0.472506    2.821677   -0.000129
 C    3.054694   -1.264468    0.000405
 O    2.743681    1.404552    0.000841
 O    0.699042   -2.718180    0.000108
 H   -2.239708   -2.169390   -0.000882
 H   -2.319206    1.930423   -0.001007
 H   -4.531841    0.682585    0.000450
 H    0.981408    3.196851    0.889943
 H    0.993214    3.196631   -0.883351
 H   -0.554896    3.186401   -0.007180
 H    3.611542   -0.954911   -0.886331
 H    3.610370   -0.955422    0.888060
 H    2.905819   -2.342360    0.000023
