23 
1rs2_ligand_aiqm1.xyz
 N   48.059037   47.931685   74.162046
 C   47.238467   47.759645   75.295064
 C   47.751362   46.754570   76.169510
 C   48.891354   46.074834   75.902295
 N   49.646782   46.282587   74.790739
 C   49.226731   47.245952   73.873263
 N   47.254561   46.277930   77.382281
 C   48.074150   45.301243   77.884834
 N   49.108494   45.186677   76.929688
 N   47.887408   44.673961   78.980019
 C   50.873564   45.566580   74.480637
 C   47.661657   48.931152   73.168585
 O   49.869009   47.463703   72.866283
 O   46.224643   48.406034   75.471576
 H   46.421229   46.589359   77.844161
 H   49.871461   44.544072   77.022819
 H   48.619202   43.995129   79.154463
 H   50.766165   45.044548   73.531849
 H   51.697009   46.271402   74.384423
 H   51.084547   44.855082   75.274448
 H   48.445860   49.678199   73.067295
 H   47.510982   48.449444   72.204955
 H   46.741226   49.384413   73.520565
