44 
1rt1_ligand_aiqm1.xyz
 C   -1.035244  -33.725452   26.820098
 C   -1.408272  -33.192420   28.058389
 C   -0.659141  -32.178413   28.653763
 C    0.472749  -31.676901   28.018923
 C    0.850728  -32.196769   26.785743
 C    0.104099  -33.212133   26.191133
 C   -1.836569  -34.860999   24.696394
 N   -2.534427  -33.807081   24.080056
 C   -2.619304  -33.686141   22.706795
 O   -3.254497  -32.813874   22.142278
 N   -1.925573  -34.635965   22.003549
 C   -1.226204  -35.729793   22.502735
 O   -0.707678  -36.508783   21.725419
 C   -1.192166  -35.811925   23.965462
 C   -1.848849  -34.847610   26.208279
 C   -0.408656  -37.000090   24.511213
 C   -1.303561  -38.036695   25.196303
 C    0.797458  -36.600286   25.364285
 C   -3.378898  -32.884406   24.852396
 O   -4.494081  -33.518684   25.408598
 C   -5.446092  -33.953073   24.437990
 C   -6.672181  -34.436767   25.176386
 H   -2.294685  -33.566889   28.559120
 H   -0.967981  -31.779753   29.610739
 H    1.050663  -30.887196   28.478361
 H    1.726337  -31.813284   26.280446
 H    0.408556  -33.605671   25.228691
 H   -1.974556  -34.553275   20.998928
 H   -2.879662  -34.781312   26.558288
 H   -1.452440  -35.791108   26.567037
 H   -0.005000  -37.490558   23.625313
 H   -1.735216  -37.683735   26.135501
 H   -2.124783  -38.316687   24.535660
 H   -0.722633  -38.933236   25.417158
 H    1.422195  -35.888780   24.821275
 H    0.526976  -36.138758   26.315321
 H    1.401267  -37.482310   25.582338
 H   -3.667268  -32.090720   24.163985
 H   -2.809485  -32.468483   25.678053
 H   -5.007116  -34.759419   23.837092
 H   -5.688564  -33.125554   23.767178
 H   -6.416836  -35.257323   25.847453
 H   -7.107341  -33.629691   25.765361
 H   -7.418672  -34.787496   24.464113
