51 
1rt2_ligand_ani-2x.xyz
 C   -1.888579  -34.948645   26.345190
 C   -2.852631  -34.494465   27.250861
 C   -2.568394  -33.483843   28.164501
 C   -1.302973  -32.906511   28.188679
 C   -0.331831  -33.350347   27.297028
 C   -0.620912  -34.362408   26.383606
 C   -1.626749  -36.001061   24.012740
 N   -2.180131  -35.078508   23.116253
 C   -1.900568  -35.130042   21.748621
 O   -2.410412  -34.388468   20.932744
 N   -0.994227  -36.099499   21.399665
 C   -0.232987  -36.917789   22.240325
 O    0.603191  -37.660855   21.752308
 C   -0.557116  -36.767803   23.659657
 C   -2.259746  -36.073488   25.380321
 C    0.312802  -37.510373   24.647332
 C    0.175984  -39.030732   24.489424
 C    1.787854  -37.104092   24.536224
 C   -3.117118  -34.053907   23.546849
 O   -4.386605  -34.622443   23.725801
 C   -5.312585  -33.759285   24.368373
 C   -6.588785  -34.520763   24.651411
 C   -7.030602  -35.496032   23.758133
 C   -8.221551  -36.175355   23.992437
 C   -8.979917  -35.889448   25.125503
 C   -8.542732  -34.918794   26.021687
 C   -7.352714  -34.237718   25.783093
 H   -3.846145  -34.941296   27.235700
 H   -3.336811  -33.144437   28.855370
 H   -1.074829  -32.116470   28.898761
 H    0.659636  -32.905760   27.306270
 H    0.158656  -34.683421   25.693814
 H   -0.778624  -36.151925   20.413244
 H   -3.346274  -36.074006   25.267579
 H   -2.008119  -37.038211   25.837945
 H   -0.013989  -37.243814   25.664010
 H   -0.869020  -39.344205   24.598734
 H    0.521723  -39.330764   23.497217
 H    0.773064  -39.548449   25.248380
 H    2.180559  -37.371812   23.552848
 H    1.904598  -36.022017   24.672886
 H    2.379885  -37.611609   25.306090
 H   -3.141621  -33.293616   22.763695
 H   -2.745075  -33.612134   24.477318
 H   -5.515383  -32.884330   23.727309
 H   -4.893584  -33.385046   25.315265
 H   -6.430850  -35.720373   22.880452
 H   -8.558416  -36.933917   23.288663
 H   -9.909607  -36.422636   25.308172
 H   -9.129867  -34.691696   26.908736
 H   -7.012874  -33.478984   26.485878
