51 
1rt2_ligand_dft.xyz
 C   -0.157046    1.815733    0.034455
 C   -1.491341    2.228247   -0.015758
 C   -1.832517    3.452669   -0.581056
 C   -0.842948    4.280131   -1.106270
 C    0.487774    3.875276   -1.060524
 C    0.828721    2.650326   -0.493178
 C    1.344635   -0.261498    0.061099
 N    1.045915   -0.970485   -1.112162
 C    1.956383   -1.838426   -1.714023
 O    1.717320   -2.479332   -2.718580
 N    3.169826   -1.901479   -1.073478
 C    3.592129   -1.192116    0.048670
 O    4.716765   -1.381100    0.480948
 C    2.586008   -0.287445    0.614294
 C    0.185355    0.486415    0.680682
 C    2.990928    0.538223    1.824667
 C    3.191113   -0.337809    3.068819
 C    4.228706    1.403973    1.541282
 C   -0.215062   -0.802038   -1.803269
 O   -1.235797   -1.448293   -1.083875
 C   -2.536131   -1.018782   -1.431469
 C   -3.432715   -1.058614   -0.216730
 C   -3.145006   -1.890591    0.864888
 C   -3.987607   -1.916512    1.972977
 C   -5.125782   -1.116280    2.009404
 C   -5.418001   -0.284715    0.931332
 C   -4.573499   -0.255126   -0.173881
 H   -2.267240    1.581569    0.389106
 H   -2.874020    3.759194   -0.613473
 H   -1.108161    5.234468   -1.551082
 H    1.265589    4.513488   -1.469231
 H    1.868978    2.335579   -0.468330
 H    3.844515   -2.536198   -1.480882
 H   -0.690442   -0.165105    0.650055
 H    0.400961    0.645122    1.739071
 H    2.180472    1.241294    2.037236
 H    2.279926   -0.899116    3.303869
 H    4.004833   -1.049821    2.908064
 H    3.442487    0.283683    3.935362
 H    5.112985    0.785892    1.377120
 H    4.075641    2.032101    0.656239
 H    4.416335    2.065644    2.393917
 H   -0.088090   -1.239108   -2.795507
 H   -0.433384    0.268325   -1.892229
 H   -2.936552   -1.659855   -2.230977
 H   -2.508661    0.009795   -1.821805
 H   -2.253913   -2.508964    0.835631
 H   -3.752502   -2.565696    2.811294
 H   -5.780543   -1.136858    2.875326
 H   -6.300398    0.347939    0.953790
 H   -4.799875    0.403952   -1.009478
