51 
1rt2_ligand_aiqm1.xyz
 C   -1.538500  -34.631152   26.494153
 C   -2.346806  -34.090534   27.500150
 C   -1.898542  -33.025938   28.281012
 C   -0.637120  -32.480476   28.065311
 C    0.174527  -33.008481   27.066160
 C   -0.271542  -34.074589   26.286518
 C   -1.571658  -35.796877   24.227627
 N   -2.214563  -34.880490   23.378263
 C   -2.008330  -34.872226   22.006736
 O   -2.585271  -34.123903   21.242278
 N   -1.073328  -35.772702   21.571022
 C   -0.350219  -36.692978   22.321293
 O    0.400168  -37.462807   21.749664
 C   -0.605453  -36.634648   23.765650
 C   -2.035229  -35.799031   25.669801
 C    0.188762  -37.577101   24.663793
 C   -0.308734  -39.018234   24.521796
 C    1.699198  -37.483530   24.432884
 C   -3.272815  -34.016247   23.841550
 O   -4.440552  -34.791104   24.022818
 C   -5.579862  -33.967106   24.244626
 C   -6.787305  -34.832218   24.459895
 C   -7.209933  -35.707665   23.457903
 C   -8.339108  -36.497358   23.648841
 C   -9.057908  -36.419372   24.840299
 C   -8.640474  -35.548730   25.842620
 C   -7.506132  -34.761614   25.652710
 H   -3.334248  -34.505080   27.674789
 H   -2.539379  -32.623930   29.054435
 H   -0.290863  -31.652579   28.668059
 H    1.157262  -32.592434   26.889649
 H    0.370682  -34.476217   25.512052
 H   -0.929831  -35.796690   20.572289
 H   -3.125027  -35.820496   25.688924
 H   -1.708351  -36.725799   26.137606
 H    0.030093  -37.272142   25.700444
 H   -1.379313  -39.081357   24.735147
 H   -0.134263  -39.375796   23.507486
 H    0.221499  -39.670080   25.217872
 H    1.968268  -37.864992   23.451996
 H    2.044180  -36.450188   24.515799
 H    2.211454  -38.075030   25.194414
 H   -3.419269  -33.258258   23.073605
 H   -2.985580  -33.527233   24.776534
 H   -5.729239  -33.314879   23.376529
 H   -5.413180  -33.331819   25.123910
 H   -6.646709  -35.773942   22.535841
 H   -8.657226  -37.175713   22.867605
 H   -9.936132  -37.034015   24.985874
 H   -9.191740  -35.482819   26.771826
 H   -7.179360  -34.085004   26.435041
