17 
1rtf_ligand_dft.xyz
 C    0.213878   -0.035479    0.021923
 C   -0.464800    1.174339    0.189140
 C   -1.856230    1.209483    0.168462
 C   -2.580630    0.036895   -0.019628
 C   -1.908642   -1.174070   -0.176491
 C   -0.520544   -1.211244   -0.152529
 C    1.705496   -0.111030    0.035734
 N    2.266925   -1.212714    0.363915
 N    2.353611    1.078449   -0.275508
 H    0.091572    2.089153    0.371766
 H   -2.373372    2.154099    0.308433
 H   -3.666201    0.064508   -0.038100
 H   -2.469835   -2.092953   -0.318068
 H    0.019292   -2.145358   -0.264422
 H    3.284971   -1.140625    0.307483
 H    3.348144    1.002229   -0.439074
 H    1.890505    1.675433   -0.946533
