17 
1rtf_ligand_aiqm1.xyz
 C   -6.914947   31.265982   33.952171
 C   -8.175069   30.981962   34.481811
 C   -8.323627   29.973634   35.429202
 C   -7.216125   29.240286   35.847454
 C   -5.955786   29.528681   35.327012
 C   -5.803849   30.539344   34.387487
 C   -6.731535   32.341335   32.935404
 N   -5.581915   32.882971   32.793158
 N   -7.884356   32.691250   32.242735
 H   -9.030655   31.572505   34.180258
 H   -9.301019   29.765377   35.844808
 H   -7.333514   28.454808   36.582600
 H   -5.092347   28.968769   35.661980
 H   -4.832553   30.789686   33.985854
 H   -5.595606   33.587171   32.057062
 H   -7.724610   33.259048   31.428392
 H   -8.541487   31.946790   32.078114
