70 
1rtl_ligand_dft.xyz
 O    1.677851   -0.080338    0.859052
 C    1.276122   -2.797203   -1.228186
 C    1.656258   -3.431452    0.074413
 C    0.314475   -3.744255   -0.538077
 C    2.235455    0.661404    0.047256
 N    3.401624    0.341730   -0.577760
 C    4.172949   -0.845676   -0.214812
 C    4.812359   -0.724506    1.175109
 C    6.000687    0.228313    0.957083
 C    6.446696    0.004834   -0.514542
 C    5.395969   -0.950811   -1.131631
 N    1.733478    1.910660   -0.296159
 C    0.419820    2.240164    0.230370
 C    0.044012    3.713753   -0.041279
 C    0.917436    4.645484    0.802721
 C    0.092953    4.101304   -1.522634
 C   -0.617618    1.276823   -0.356564
 O   -0.616814    1.049604   -1.563345
 N   -1.520528    0.723279    0.498190
 C   -2.381777   -0.362576    0.006279
 C   -2.191040   -1.436990    1.090305
 C   -2.105164   -0.616295    2.376928
 C   -1.322089    0.637943    1.959694
 N   -0.955615   -2.162892    0.842233
 C   -0.990778   -3.230889   -0.017177
 O   -2.043700   -3.749377   -0.363520
 C   -3.831318    0.054904   -0.262420
 C   -4.455306    0.821633    0.875444
 O   -5.500012    0.551177    1.420625
 C   -4.743504   -1.054528   -0.832159
 C   -5.215735   -0.077737   -1.934413
 C   -4.051989    0.876049   -1.577640
 H    1.027998   -1.739179   -1.223279
 H    1.744727   -3.147286   -2.142322
 H    1.698958   -2.794150    0.952910
 H    2.390933   -4.230914    0.067991
 H    0.191619   -4.720758   -0.993232
 H    3.904321    1.101021   -1.014349
 H    3.509374   -1.706884   -0.296429
 H    5.166396   -1.716628    1.481178
 H    4.099300   -0.379565    1.927115
 H    6.809411    0.046118    1.669841
 H    5.679324    1.265035    1.104198
 H    7.449689   -0.425988   -0.577480
 H    6.486954    0.955346   -1.058135
 H    5.158820   -0.725682   -2.176346
 H    5.759418   -1.982860   -1.098483
 H    1.833599    2.130859   -1.279873
 H    0.485004    2.121189    1.311191
 H   -0.996175    3.816549    0.298158
 H    0.791390    4.450549    1.873429
 H    1.975858    4.507788    0.557523
 H    0.657945    5.692936    0.617098
 H   -0.336938    5.098611   -1.660208
 H   -0.458864    3.392467   -2.144384
 H    1.127573    4.149538   -1.886117
 H   -1.971654   -0.716700   -0.941761
 H   -3.000722   -2.165810    1.097265
 H   -1.606726   -1.162089    3.181041
 H   -3.112597   -0.361970    2.718487
 H   -0.259139    0.508244    2.176847
 H   -1.682758    1.541708    2.462152
 H   -0.094108   -1.629430    0.915655
 H   -3.887057    1.732377    1.172144
 H   -5.504784   -1.428271   -0.144115
 H   -4.159792   -1.896473   -1.216287
 H   -5.229290   -0.462209   -2.956978
 H   -6.192828    0.357308   -1.707996
 H   -4.292957    1.938220   -1.459118
 H   -3.186774    0.790880   -2.239762
