70 
1rtl_ligand_aiqm1.xyz
 O    1.701121   -0.001576   -1.099121
 C    1.477891    2.753363    0.754826
 C    1.509915    3.689626   -0.416418
 C    0.321155    3.700674    0.510324
 C    2.206017   -0.666334   -0.194749
 N    3.277635   -0.242268    0.526759
 C    4.144842    0.816918    0.000336
 C    5.072764    0.264700   -1.086365
 C    6.162560   -0.494891   -0.308384
 C    6.201694    0.154160    1.102422
 C    5.125016    1.256349    1.081254
 N    1.708953   -1.907458    0.166611
 C    0.394102   -2.247447   -0.356649
 C    0.068008   -3.736649   -0.173961
 C    0.963481   -4.582406   -1.078202
 C    0.167510   -4.217180    1.272248
 C   -0.643304   -1.329867    0.307496
 O   -0.632321   -1.172131    1.523091
 N   -1.529996   -0.707897   -0.499914
 C   -2.353456    0.382839    0.059114
 C   -2.283361    1.454781   -1.047965
 C   -2.229295    0.632465   -2.329609
 C   -1.353958   -0.575128   -1.961218
 N   -1.055571    2.226763   -0.879303
 C   -1.015017    3.168554    0.110036
 O   -2.034406    3.570678    0.654538
 C   -3.761086   -0.053223    0.427282
 C   -4.415594   -0.932252   -0.602730
 O   -5.533242   -0.760721   -1.037580
 C   -4.687130    1.073096    0.935177
 C   -5.190930    0.116672    2.041272
 C   -3.924352   -0.740612    1.811045
 H    1.330584    1.699471    0.567886
 H    2.125071    2.980216    1.592442
 H    1.377404    3.265532   -1.401889
 H    2.171204    4.542940   -0.368573
 H    0.220403    4.539536    1.183312
 H    3.739292   -0.930496    1.097032
 H    3.511655    1.610968   -0.372243
 H    5.507190    1.106623   -1.627174
 H    4.534104   -0.354641   -1.803056
 H    7.127526   -0.431874   -0.807564
 H    5.914263   -1.555108   -0.233373
 H    7.182663    0.565404    1.331972
 H    5.986139   -0.588792    1.873376
 H    4.639843    1.398251    2.047755
 H    5.564364    2.207663    0.779025
 H    1.809119   -2.122604    1.146534
 H    0.429901   -2.052660   -1.422857
 H   -0.967188   -3.855029   -0.510880
 H    0.892541   -4.270322   -2.122036
 H    2.007355   -4.491887   -0.768998
 H    0.683129   -5.634098   -1.016919
 H   -0.221008   -5.233994    1.348584
 H   -0.393273   -3.577887    1.951951
 H    1.208748   -4.245887    1.603618
 H   -1.881612    0.745212    0.970752
 H   -3.119521    2.141585   -1.010124
 H   -1.812101    1.196745   -3.161685
 H   -3.237802    0.314407   -2.599222
 H   -0.309888   -0.373075   -2.191799
 H   -1.654458   -1.494381   -2.466608
 H   -0.197184    1.765897   -1.134317
 H   -3.819744   -1.810867   -0.926242
 H   -5.423921    1.435903    0.221212
 H   -4.103508    1.903477    1.334852
 H   -5.340395    0.531783    3.034905
 H   -6.094462   -0.402383    1.726254
 H   -4.015894   -1.828749    1.815723
 H   -3.108818   -0.448681    2.470440
