59 
1rww_ligand_dft.xyz
 O   -9.088334   -3.687647   -0.359752
 C   -8.655626   -3.254091    0.683493
 O   -8.864212   -3.855596    1.864019
 C   -7.826604   -2.004693    0.836950
 C   -7.523336   -1.318089   -0.505599
 C   -8.773983   -0.719203   -1.123594
 O   -8.859529    0.452755   -1.411234
 N   -6.556380   -0.259963   -0.350330
 C   -5.241112   -0.539660   -0.142286
 O   -4.837485   -1.685827    0.006668
 C   -4.310080    0.632617   -0.087507
 C   -2.948234    0.384430   -0.242634
 N   -2.014545    1.333985   -0.193934
 C   -4.704400    1.952188    0.145207
 C   -3.739473    2.944026    0.201962
 C   -2.399231    2.593608    0.025919
 C   -1.317610    3.649150    0.078650
 N   -0.017994    3.033470    0.099706
 C    1.106752    3.786772    0.197389
 O    1.060865    5.008548    0.277360
 C    2.406481    3.039247    0.206410
 C    2.515831    1.678700    0.498776
 C    3.569825    3.761932   -0.064963
 C    4.804857    3.135688   -0.089465
 C    4.909267    1.767294    0.186441
 C    3.752436    1.047861    0.504197
 N    6.181818    1.176375    0.182436
 C    6.503563   -0.146838   -0.038618
 C    5.681602   -0.986656   -0.868121
 N    5.991021   -2.224352   -1.122724
 N    7.633579   -0.573760    0.472784
 C    7.978393   -1.866329    0.210105
 C    7.148871   -2.704916   -0.574593
 C    9.180068   -2.391126    0.741463
 C    9.523687   -3.698708    0.498832
 C    8.693546   -4.534223   -0.283787
 C    7.525207   -4.045403   -0.814165
 H   -9.391599   -4.650581    1.682857
 H   -8.327079   -1.319618    1.530495
 H   -6.873480   -2.283698    1.296675
 H   -7.146675   -2.086913   -1.194912
 H   -9.604253   -1.423920   -1.293663
 H   -6.860156    0.642959   -0.693204
 H   -2.608643   -0.633686   -0.408866
 H   -5.746817    2.207013    0.314370
 H   -4.011571    3.977313    0.393650
 H   -1.448529    4.276396    0.968253
 H   -1.418471    4.323103   -0.784624
 H   -0.000061    2.049492   -0.131559
 H    1.640381    1.099275    0.778431
 H    3.479982    4.824261   -0.265778
 H    5.701277    3.698888   -0.333541
 H    3.821488    0.002093    0.785133
 H    6.936579    1.704796    0.598801
 H    4.780389   -0.587797   -1.326627
 H    9.803121   -1.736559    1.342131
 H   10.444006   -4.099766    0.913062
 H    8.985004   -5.564303   -0.463417
 H    6.867979   -4.658374   -1.422480
