59 
1rww_ligand_ani-2x.xyz
 O   -8.438620    4.981170    2.208196
 C   -8.203693    4.806291    1.034838
 O   -8.546647    5.696884    0.088196
 C   -7.498124    3.611688    0.447444
 C   -7.265649    2.508316    1.482339
 C   -8.580853    1.962684    2.018341
 O   -8.888800    0.800818    1.877724
 N   -6.525424    1.404229    0.921048
 C   -5.173773    1.473847    0.789518
 O   -4.548741    2.503270    1.019747
 C   -4.486130    0.221590    0.355534
 C   -3.111008    0.131355    0.566039
 N   -2.381313   -0.927171    0.230602
 C   -5.116814   -0.855437   -0.268019
 C   -4.364191   -1.964426   -0.619167
 C   -2.996704   -1.970323   -0.340449
 C   -2.140987   -3.172565   -0.645998
 N   -0.762755   -2.762307   -0.764580
 C    0.179369   -3.643432   -1.181392
 O   -0.103388   -4.789768   -1.507801
 C    1.587505   -3.140791   -1.221676
 C    1.915980   -1.785714   -1.232878
 C    2.613275   -4.084931   -1.288197
 C    3.937295   -3.682491   -1.321481
 C    4.269534   -2.324859   -1.278500
 C    3.241619   -1.373828   -1.260953
 N    5.629619   -1.977610   -1.312321
 C    6.296040   -0.945588   -0.683946
 C    5.700116   -0.181325    0.377585
 N    6.325315    0.789423    0.978236
 N    7.530311   -0.730470   -1.073605
 C    8.198460    0.289323   -0.461879
 C    7.600998    1.058131    0.560444
 C    9.525514    0.585204   -0.857915
 C   10.214736    1.608124   -0.257536
 C    9.611544    2.379112    0.765656
 C    8.328263    2.109278    1.169070
 H   -8.981936    6.432699    0.550420
 H   -8.064248    3.236681   -0.411371
 H   -6.524438    3.944740    0.072977
 H   -6.717008    2.954315    2.319772
 H   -9.237322    2.672901    2.545873
 H   -7.006525    0.513670    0.966383
 H   -2.592155    0.970935    1.021878
 H   -6.180728   -0.828774   -0.504740
 H   -4.831710   -2.821727   -1.096545
 H   -2.464971   -3.663368   -1.570182
 H   -2.257963   -3.926133    0.147168
 H   -0.549180   -1.899936   -0.281013
 H    1.137035   -1.026121   -1.244396
 H    2.349441   -5.137645   -1.320037
 H    4.733535   -4.421509   -1.368950
 H    3.474647   -0.312679   -1.284638
 H    6.242586   -2.548477   -1.879016
 H    4.695918   -0.420548    0.725091
 H    9.963711   -0.022190   -1.645126
 H   11.232764    1.832682   -0.565911
 H   10.172979    3.185797    1.230272
 H    7.834085    2.676984    1.952128
