63 
1rxp_ligand_aiqm1.xyz
 C    2.527522   -0.830915    3.781947
 C    3.490161    0.089563    3.036261
 C    4.905900   -0.470954    3.106808
 C    3.461489    1.498722    3.632158
 N    1.944999    0.747196   -0.299242
 C    2.413202   -0.394408   -1.090820
 C    2.425751   -0.058189   -2.581019
 C    0.686428    1.327769   -0.780186
 C    0.786180    1.648380   -2.263863
 C    0.169746   -0.543040   -3.182511
 O    0.455377   -1.735053   -3.229056
 N    1.126895    0.442099   -3.013141
 C   -2.424636   -1.788335   -2.025845
 C   -3.369207   -2.959677   -2.189032
 N   -1.122583   -0.125629   -3.307417
 C   -2.193709   -1.091105   -3.384382
 O   -4.284176   -3.205385   -1.441581
 C   -2.830304   -0.833289   -0.900262
 C   -2.461460   -1.403991    0.467795
 C   -2.743284   -0.466467    1.642810
 N   -1.991432    0.771803    1.648077
 C   -2.435246    1.921711    1.034841
 N   -3.551238    2.119079    0.425199
 N   -1.512880    2.958810    1.088112
 C   -3.419641   -0.342815   -3.856241
 O   -3.451276    0.843558   -4.055397
 O   -4.464986   -1.162507   -4.034682
 C    1.985243    0.629671    1.090827
 O    1.038945    0.986415    1.791470
 N    3.141534    0.124361    1.599671
 H    1.513987   -0.444265    3.712675
 H    2.815775   -0.886594    4.833346
 H    2.557544   -1.834990    3.354066
 H    5.230333   -0.541649    4.144655
 H    5.602944    0.181705    2.575451
 H    4.943918   -1.468791    2.665697
 H    3.744050    1.457358    4.685814
 H    4.164342    2.151032    3.107617
 H    2.460817    1.917959    3.549054
 H    1.762535   -1.262816   -0.932113
 H    3.421508   -0.676081   -0.786178
 H    2.668190   -0.949338   -3.155619
 H    3.166563    0.717238   -2.789660
 H    0.489304    2.231411   -0.211197
 H   -0.141944    0.625420   -0.613121
 H   -0.140772    2.083835   -2.626805
 H    1.578754    2.378473   -2.439200
 H   -1.463232   -2.239904   -1.768940
 H   -3.155018   -3.616797   -3.057409
 H   -1.388161    0.827596   -3.487132
 H   -1.955322   -1.863246   -4.123360
 H   -2.340243    0.129960   -1.043993
 H   -3.905358   -0.642470   -0.952362
 H   -3.010226   -2.333568    0.633105
 H   -1.394817   -1.660957    0.471441
 H   -3.807430   -0.230332    1.685428
 H   -2.507922   -0.995338    2.567983
 H   -1.000219    0.719454    1.846141
 H   -4.099473    1.267436    0.397080
 H   -0.885965    2.945080    1.876912
 H   -1.943687    3.848974    0.897114
 H   -5.208748   -0.610433   -4.307020
 H    3.924859    0.077161    0.970734
