63 
1rxp_ligand_dft.xyz
 C   -4.652188   -1.076092    1.869966
 C   -5.119718   -0.058903    0.822397
 C   -6.072757    0.946630    1.477176
 C   -5.826112   -0.763347   -0.344048
 N   -1.934660    1.125281   -0.722488
 C   -1.612841    2.287563    0.116605
 C   -0.747058    3.293610   -0.642558
 C   -0.776338    0.523338   -1.384116
 C    0.027566    1.583993   -2.119449
 C    1.453310    2.424780   -0.278620
 O    1.463703    2.951424    0.831062
 N    0.435948    2.648417   -1.201656
 C    2.772081    0.170422    1.347262
 C    3.701837   -0.068233    2.519032
 N    2.450027    1.575550   -0.666918
 C    3.418433    1.107125    0.289081
 O    3.848301   -1.132893    3.068623
 C    2.199054   -1.121356    0.760683
 C    0.999671   -1.643301    1.553565
 C    0.340567   -2.890135    0.952086
 N   -0.302935   -2.683578   -0.325117
 C    0.305836   -2.878137   -1.543162
 N    1.495675   -3.283894   -1.807730
 N   -0.536302   -2.554668   -2.613957
 C    4.506637    0.390805   -0.486531
 O    4.489492    0.190479   -1.676735
 O    5.493921   -0.016049    0.321487
 C   -2.886727    0.205449   -0.298404
 O   -2.760501   -1.004545   -0.504951
 N   -3.969232    0.730698    0.346110
 H   -3.967661   -1.801599    1.427351
 H   -5.516222   -1.611971    2.276699
 H   -4.142185   -0.566692    2.694339
 H   -6.949347    0.428042    1.875703
 H   -6.428123    1.688453    0.750830
 H   -5.580882    1.471930    2.303357
 H   -6.700222   -1.313882    0.020351
 H   -6.167053   -0.030876   -1.084299
 H   -5.145780   -1.464107   -0.831812
 H   -1.069737    1.969023    1.018523
 H   -2.524448    2.791497    0.442872
 H   -0.432492    4.085645    0.035673
 H   -1.312106    3.733274   -1.471261
 H   -1.113971   -0.249070   -2.074828
 H   -0.123477    0.029575   -0.649737
 H    0.883315    1.119759   -2.610840
 H   -0.576585    2.044315   -2.908118
 H    1.961101    0.786825    1.764972
 H    4.234530    0.835057    2.886255
 H    2.558050    1.234738   -1.610264
 H    3.872257    1.959569    0.810118
 H    1.903270   -0.949687   -0.280099
 H    2.985935   -1.885718    0.747143
 H    1.317707   -1.871227    2.577598
 H    0.238319   -0.852401    1.623784
 H    1.076317   -3.696171    0.850267
 H   -0.418584   -3.257869    1.651956
 H   -1.154512   -2.127219   -0.326278
 H    2.051689   -3.385831   -0.962411
 H   -1.506899   -2.805287   -2.471986
 H   -0.161527   -2.924894   -3.477609
 H    6.129625   -0.508556   -0.222432
 H   -4.156791    1.708136    0.184798
