70 
1s19_ligand_ani-2x.xyz
 O   -7.879947    1.765711    1.008845
 O   -4.721249   -0.422396    2.652319
 C   -5.629729   -1.141616    1.824666
 C   -6.911068   -0.326284    1.791638
 C   -6.677077    1.015557    1.097606
 C   -6.200767    0.791958   -0.332558
 C   -4.971273   -0.087784   -0.385914
 C   -3.887402    0.259355   -1.129752
 C   -2.601367   -0.405606   -1.105315
 C   -1.549078   -0.079045   -1.897124
 C   -1.647718    0.763047   -3.140764
 C   -5.069573   -1.317337    0.413608
 C   -0.694957    1.968343   -3.079924
 C    0.740095    1.572154   -2.690911
 C    0.783926    0.740317   -1.400702
 C   -0.137718   -0.489429   -1.625421
 C    0.211885   -1.436486   -0.473777
 C    1.731986   -1.228357   -0.280545
 C    2.129595    0.032252   -1.100383
 C    0.320339    1.566910   -0.194296
 C   -4.748644   -2.543793   -0.011162
 C    3.239763    0.847002   -0.406633
 C    4.433694   -0.041647   -0.159558
 C    6.264635   -1.045917    1.218561
 C    3.693797    2.075864   -1.203567
 C    6.100395   -2.072306    2.318519
 C    7.318375   -2.645922    2.979745
 C    6.415308   -1.722895    3.743372
 O    7.338260   -0.168766    1.552224
 C    5.004820   -0.247660    1.025116
 H   -8.149180    1.997602    1.906668
 H   -3.852718   -0.835013    2.560241
 H   -5.819696   -2.139181    2.248709
 H   -7.252890   -0.164753    2.821604
 H   -7.697199   -0.875147    1.257081
 H   -5.908460    1.571338    1.657383
 H   -6.019456    1.757694   -0.819578
 H   -7.023642    0.303546   -0.872496
 H   -3.969366    1.142493   -1.759553
 H   -2.476835   -1.213126   -0.382756
 H   -2.676532    1.083941   -3.327740
 H   -1.365460    0.135113   -3.999217
 H   -0.686058    2.484238   -4.047368
 H   -1.081997    2.694251   -2.352305
 H    1.182595    0.976849   -3.504163
 H    1.352363    2.475398   -2.596909
 H    0.237308   -0.950352   -2.553842
 H   -0.048351   -2.476583   -0.696570
 H   -0.330966   -1.154827    0.436522
 H    1.978516   -1.088825    0.778035
 H    2.306880   -2.096472   -0.622234
 H    2.533005   -0.302139   -2.070621
 H    0.403619    1.004314    0.742346
 H   -0.724227    1.873339   -0.294306
 H    0.926006    2.473150   -0.086481
 H   -4.335830   -2.726434   -1.000337
 H   -4.895031   -3.415418    0.622513
 H    2.861021    1.178063    0.573572
 H    4.848700   -0.523161   -1.047948
 H    6.502135   -1.571239    0.276408
 H    4.552435    2.550574   -0.716563
 H    4.006043    1.781464   -2.213235
 H    2.910805    2.834147   -1.292334
 H    5.267644   -2.753313    2.154535
 H    7.318344   -3.703712    3.227476
 H    8.275807   -2.245074    2.659335
 H    5.784881   -2.138514    4.524711
 H    6.780206   -0.715617    3.924014
 H    7.282658    0.585965    0.952788
 H    4.603519    0.217492    1.924800
