70 
1s19_ligand_xtb.xyz
 O   -8.114118    1.166057    0.698760
 O   -4.582302    0.082053    2.693731
 C   -5.319880   -0.959722    2.072030
 C   -6.755172   -0.465668    1.898600
 C   -6.796335    0.699973    0.907278
 C   -6.249015    0.246025   -0.447746
 C   -4.856524   -0.298043   -0.306043
 C   -3.844042    0.150676   -1.066162
 C   -2.464902   -0.244876   -0.941840
 C   -1.465775    0.059379   -1.779357
 C   -1.600265    0.826485   -3.065091
 C   -4.716604   -1.325534    0.732295
 C   -0.662563    2.039401   -3.088034
 C    0.784513    1.661258   -2.767440
 C    0.874753    0.902610   -1.440926
 C   -0.040870   -0.342261   -1.555135
 C    0.352641   -1.183874   -0.347204
 C    1.874235   -0.979905   -0.250282
 C    2.234172    0.222853   -1.158105
 C    0.442282    1.794773   -0.275719
 C   -4.110103   -2.491969    0.541800
 C    3.355083    1.068211   -0.528804
 C    4.518545    0.163900   -0.242207
 C    6.149642   -1.022108    1.241673
 C    3.835967    2.202956   -1.436462
 C    5.620148   -2.256282    1.955749
 C    6.516173   -3.062947    2.843863
 C    5.417796   -2.236532    3.438980
 O    7.131846   -0.403032    2.053431
 C    5.001982   -0.090294    0.961383
 H   -8.480202    1.444507    1.544786
 H   -3.645741   -0.137404    2.651593
 H   -5.316092   -1.846468    2.728820
 H   -7.133259   -0.141685    2.871063
 H   -7.379627   -1.281837    1.530497
 H   -6.164626    1.512903    1.297528
 H   -6.272412    1.084477   -1.144132
 H   -6.916450   -0.531086   -0.832737
 H   -4.074935    0.905839   -1.805276
 H   -2.237805   -0.844589   -0.071317
 H   -2.624016    1.157729   -3.231340
 H   -1.332184    0.160030   -3.891615
 H   -0.702135    2.503334   -4.076435
 H   -1.015620    2.777274   -2.366218
 H    1.175719    1.028637   -3.568970
 H    1.385426    2.570402   -2.741799
 H    0.285363   -0.886955   -2.451621
 H    0.085289   -2.232028   -0.476511
 H   -0.139122   -0.819209    0.553509
 H    2.175198   -0.783001    0.778387
 H    2.411738   -1.870685   -0.574537
 H    2.613350   -0.158899   -2.112951
 H    0.696520    1.341078    0.677246
 H   -0.633334    1.951348   -0.292639
 H    0.933085    2.763668   -0.334076
 H   -3.697282   -2.763225   -0.414405
 H   -4.031945   -3.225130    1.328456
 H    3.004859    1.494482    0.414700
 H    4.967424   -0.301312   -1.111450
 H    6.606084   -1.337876    0.286160
 H    4.742685    2.643012   -1.025097
 H    4.057285    1.829836   -2.433857
 H    3.089099    2.986840   -1.514355
 H    4.891729   -2.787491    1.354699
 H    6.414715   -4.137664    2.833839
 H    7.526441   -2.710217    2.973812
 H    4.551109   -2.734818    3.846743
 H    5.705939   -1.340894    3.965695
 H    7.373752    0.435070    1.647253
 H    4.572569    0.365744    1.843634
