22 
1s38_ligand_ani-2x.xyz
 C   17.085085   16.766373   18.867337
 C   16.072257   16.486858   19.769843
 C   14.750654   15.933412   19.303351
 C   16.304414   16.732605   21.142700
 N   15.276622   16.447017   22.038621
 C   15.507162   16.678144   23.285481
 N   14.547678   16.422628   24.215279
 N   16.692472   17.184003   23.781372
 C   17.786352   17.504519   22.976917
 O   18.807617   17.948454   23.463282
 C   17.548002   17.250026   21.548445
 C   18.550625   17.522237   20.616602
 C   18.323382   17.282003   19.275811
 H   16.908258   16.577906   17.809737
 H   14.265357   16.616447   18.592761
 H   14.885783   14.976610   18.780618
 H   14.080479   15.777130   20.152296
 H   13.672867   16.052591   23.882435
 H   14.676033   16.583005   25.198766
 H   16.827495   17.350188   24.772182
 H   19.494687   17.921183   20.978485
 H   19.094117   17.488961   18.538678
