19 
1s39_ligand_aiqm1.xyz
 C   18.122351   17.142858   19.176753
 C   16.834135   16.717643   18.814477
 C   15.843515   16.556996   19.768984
 C   16.113066   16.818043   21.120430
 N   15.090246   16.643267   22.039550
 C   15.376630   16.893632   23.274311
 N   14.421727   16.743731   24.228327
 N   16.608128   17.312829   23.715161
 C   17.704604   17.520392   22.879377
 O   18.767527   17.893073   23.339313
 C   17.406870   17.244009   21.475811
 C   18.404468   17.404180   20.502662
 H   18.887316   17.264516   18.421950
 H   16.610195   16.511916   17.774501
 H   14.847813   16.230011   19.501365
 H   13.515880   16.437553   23.929760
 H   14.595034   16.922922   25.195892
 H   16.771697   17.492993   24.694157
 H   19.384798   17.733539   20.820920
