91 
1s3k_ligand_xtb.xyz
 C   -4.161927    0.776040    0.930677
 C   -5.227215   -0.319731    0.810870
 C   -4.547243   -1.706499    0.747845
 C   -3.101195   -1.654836    1.283873
 C   -2.972894   -0.668259    2.457787
 C   -3.732717   -1.106431    3.709370
 O   -6.057050   -0.099719   -0.297055
 O   -5.264843   -2.667631    1.498419
 O   -2.645620   -2.939458    1.611497
 O   -3.370783    0.650740    2.059470
 C   -1.281579    1.023813   -1.259643
 C   -2.385916    1.663668   -0.403669
 C   -2.882939    2.961429   -1.073424
 C   -1.674648    3.867413   -1.375508
 C   -0.611650    3.086164   -2.166113
 C    0.650538    3.921419   -2.450759
 O   -3.429913    0.712994   -0.290382
 O   -3.803915    3.644022   -0.270945
 O   -1.212298    4.332450   -0.134039
 O   -0.216234    1.922323   -1.466680
 O    1.207903    4.523329   -1.314199
 C    1.306098   -3.524989   -1.571789
 C    2.157993   -2.254746   -1.378385
 C    1.326691   -1.206446   -0.618850
 C   -0.000391   -0.977661   -1.352346
 C   -0.732387   -2.318337   -1.533934
 C   -1.993652   -2.155084   -2.390171
 C    4.603062   -2.399286   -1.241831
 C    5.750367   -2.738430   -0.318207
 O    0.097584   -3.253433   -2.218813
 O    1.973796    0.053354   -0.572844
 O   -0.807742   -0.091306   -0.590473
 O   -1.702863   -1.618052   -3.652468
 O    4.749521   -1.972941   -2.366216
 N    3.376849   -2.582242   -0.687336
 O    1.123372   -4.101099   -0.313129
 C    2.905681    0.256455    0.442810
 C    3.161524    1.776749    0.472823
 C    3.819086    2.167155    1.814526
 C    4.407404    0.936378    2.519051
 C    3.301227   -0.106898    2.753572
 C    3.883113   -1.487036    3.054509
 O    1.953983    2.481008    0.335172
 O    4.878807    3.079323    1.638376
 O    5.460949    0.389797    1.759120
 O    2.378965   -0.166529    1.674240
 H   -4.636144    1.765354    1.010459
 H   -5.871967   -0.276551    1.696200
 H   -4.514958   -2.022410   -0.306221
 H   -2.446482   -1.284188    0.490781
 H   -1.907328   -0.583491    2.706560
 H   -3.708217   -0.301027    4.438138
 H   -3.249526   -1.982033    4.134444
 H   -4.766676   -1.348676    3.484091
 H   -5.497662    0.208580   -1.021528
 H   -6.163053   -2.703725    1.153301
 H   -3.373692   -3.380120    2.072074
 H   -1.711573    0.748592   -2.244224
 H   -1.976457    1.884483    0.588875
 H   -3.409474    2.698891   -1.997924
 H   -2.012828    4.717171   -1.993857
 H   -1.055134    2.792525   -3.133408
 H    0.382072    4.735281   -3.130019
 H    1.380499    3.269932   -2.946252
 H   -3.289201    4.097300    0.413342
 H   -0.310084    4.675887   -0.272576
 H    1.560340    3.819849   -0.727091
 H    1.828922   -4.221381   -2.248881
 H    2.447025   -1.853462   -2.356317
 H    1.118819   -1.553113    0.399132
 H    0.217048   -0.537218   -2.332038
 H   -1.003895   -2.708234   -0.544205
 H   -2.677440   -1.460247   -1.899525
 H   -2.478683   -3.135606   -2.487852
 H    6.645711   -2.908830   -0.908942
 H    5.530558   -3.616775    0.282350
 H    5.932449   -1.889584    0.341109
 H   -1.033007   -2.183789   -4.057020
 H    3.272970   -2.964771    0.239221
 H    0.495830   -4.830376   -0.385594
 H    3.849079   -0.270072    0.229182
 H    3.839927    2.029928   -0.356842
 H    3.033934    2.598784    2.451530
 H    4.798661    1.254656    3.497645
 H    2.698817    0.225695    3.608079
 H    4.452941   -1.448675    3.978073
 H    3.072261   -2.202538    3.159322
 H    4.542881   -1.796929    2.250895
 H    1.298917    1.878861   -0.070538
 H    4.534203    3.873810    1.216228
 H    6.025697    1.132132    1.505825
