78 
1shd_ligand_xtb.xyz
 C   -0.440130    1.272894   -1.279909
 O   -0.304538    0.245206   -0.644419
 N    0.310406    2.377822   -1.051662
 C    0.986142    2.555833    0.222795
 C    2.003969    1.438134    0.503884
 O    2.370101    1.220409    1.648713
 C   -0.001729    2.623968    1.416506
 C   -1.325500    3.193182    0.998777
 C   -1.475591    4.540220    0.698956
 C   -2.421276    2.350344    0.850228
 C   -2.690065    5.036965    0.261328
 C   -3.636481    2.833902    0.410144
 C   -3.777562    4.185262    0.109910
 O   -4.989318    4.627201   -0.323389
 N    2.442914    0.784594   -0.577110
 C    3.417692   -0.285684   -0.635872
 C    2.886767   -1.712742   -0.366547
 O    3.657866   -2.646174   -0.471132
 C    4.634925   -0.056727    0.274000
 C    5.279014    1.325232    0.086337
 C    5.541509    1.623376   -1.366082
 O    4.709133    1.964687   -2.168231
 O    6.823237    1.454422   -1.692416
 N    1.585860   -1.852338   -0.066430
 C    1.062764   -3.183562    0.182073
 C   -0.401537   -3.440865   -0.187654
 O   -0.816846   -4.583953   -0.199116
 C    1.301373   -3.641413    1.635702
 C    0.447989   -2.891719    2.663172
 C    0.706373   -1.406129    2.584901
 O   -0.128581   -0.592678    2.264951
 O    1.953823   -1.093859    2.886786
 N   -1.175754   -2.378461   -0.466498
 C   -2.556916   -2.525991   -0.867694
 C   -2.654915   -2.162549   -2.340675
 O   -3.143286   -3.139859   -3.084901
 C   -3.505286   -1.616908   -0.054730
 C   -3.263646   -1.826020    1.443764
 C   -4.946688   -1.914117   -0.461943
 C   -4.213046   -1.026103    2.329650
 O   -2.319100   -1.097611   -2.810053
 O   -1.259672    1.401129   -2.310908
 H    0.012845    3.211997   -1.534903
 H    1.549445    3.491893    0.145988
 H   -0.153387    1.613369    1.798402
 H    0.454192    3.222381    2.205563
 H   -0.637841    5.213914    0.813495
 H   -2.309406    1.304377    1.093043
 H   -2.796688    6.090374    0.035760
 H   -4.491052    2.186728    0.290818
 H   -4.953948    5.577777   -0.483431
 H    2.122201    1.125279   -1.470330
 H    3.769419   -0.313436   -1.673488
 H    5.353939   -0.844730    0.048265
 H    4.334552   -0.152785    1.317016
 H    4.607369    2.088886    0.480102
 H    6.221981    1.355450    0.630079
 H    6.969940    1.625128   -2.636709
 H    0.994866   -1.037511    0.026511
 H    1.657477   -3.859161   -0.449073
 H    2.358920   -3.502702    1.863288
 H    1.064627   -4.704274    1.689454
 H   -0.611610   -3.080405    2.491390
 H    0.718301   -3.237399    3.661922
 H    2.145380   -0.149437    2.664066
 H   -0.826591   -1.426956   -0.457981
 H   -2.826896   -3.580048   -0.744669
 H   -3.175782   -2.898138   -4.026114
 H   -3.270708   -0.576506   -0.306558
 H   -2.242297   -1.518091    1.671824
 H   -3.360647   -2.889286    1.674886
 H   -5.630193   -1.222163    0.020777
 H   -5.218564   -2.928408   -0.178665
 H   -5.074006   -1.812830   -1.537875
 H   -3.887435   -1.091506    3.364868
 H   -5.229778   -1.406037    2.271890
 H   -4.215334    0.022949    2.043417
 H   -1.702481    0.540559   -2.506132
