47 
1sqb_ligand_dft.xyz
 N    4.105422   -2.461312    1.920266
 C    4.547654   -1.550726    1.356232
 C    5.100158   -0.423512    0.663498
 C    6.433406   -0.433277    0.243760
 C    6.964395    0.667329   -0.416378
 C    6.166768    1.782536   -0.658955
 C    4.836713    1.800779   -0.250535
 C    4.307016    0.700898    0.404371
 O    3.016662    0.776754    0.879505
 C    2.054928    0.009347    0.307420
 C    0.803997    0.020221    0.901344
 C   -0.153051   -0.760110    0.258325
 N    0.106791   -1.483012   -0.828092
 C    1.350100   -1.402080   -1.285667
 N    2.351687   -0.681119   -0.787601
 O   -1.382932   -0.756830    0.795918
 C   -2.454772   -1.336352    0.127441
 C   -2.526291   -2.711568   -0.039025
 C   -3.659908   -3.265395   -0.621492
 C   -4.709873   -2.443372   -1.021480
 C   -4.622549   -1.068401   -0.841143
 C   -3.490221   -0.485574   -0.265319
 C   -3.407812    0.979181   -0.045423
 C   -2.313848    1.801653   -0.610211
 O   -2.119513    2.976019   -0.368313
 O   -1.545671    1.095404   -1.455949
 C   -0.434700    1.792336   -2.008786
 C   -4.317054    1.661999    0.673622
 O   -5.371054    1.081758    1.253754
 C   -6.196029    1.941397    2.025214
 H    7.042577   -1.308166    0.443674
 H    8.000400    0.655221   -0.737611
 H    6.579792    2.645304   -1.171831
 H    4.199213    2.659308   -0.430151
 H    0.581249    0.597066    1.788475
 H    1.575974   -1.987587   -2.173390
 H   -1.698088   -3.331853    0.282949
 H   -3.721526   -4.340433   -0.758969
 H   -5.597784   -2.873384   -1.474438
 H   -5.440276   -0.424508   -1.148614
 H   -0.772140    2.624734   -2.631438
 H    0.209678    2.179242   -1.214947
 H    0.099697    1.055677   -2.608439
 H   -4.205798    2.737911    0.802594
 H   -5.637077    2.369685    2.864652
 H   -6.608728    2.747481    1.407717
 H   -7.008563    1.323710    2.407546
