28 
1sre_ligand_aiqm1.xyz
 C   33.154811   12.144834   -5.409233
 C   34.390834   11.980613   -4.759267
 C   34.544358   10.910188   -3.878226
 C   33.506320   10.017156   -3.639200
 C   32.288033   10.190417   -4.288618
 C   32.109806   11.250499   -5.170685
 C   31.741099   14.414341   -7.760150
 C   32.585679   15.531648   -7.825214
 C   32.294371   16.565828   -8.701788
 C   31.165389   16.496031   -9.519327
 C   30.317744   15.390476   -9.452930
 C   30.608729   14.360083   -8.569593
 C   35.608638   12.868065   -4.925138
 N   33.000737   13.259661   -6.296505
 N   31.912321   13.300962   -6.898770
 O   36.618523   12.669364   -4.299219
 O   35.527180   13.879870   -5.797787
 O   30.940785   17.540969  -10.358979
 H   35.502153   10.804307   -3.389611
 H   33.648237    9.193687   -2.950735
 H   31.472989    9.501143   -4.109415
 H   31.164676   11.394459   -5.676669
 H   33.457408   15.612695   -7.190217
 H   32.932420   17.435802   -8.765515
 H   29.438401   15.335063  -10.082691
 H   29.968014   13.491414   -8.498461
 H   34.629578   13.872568   -6.188138
 H   30.140866   17.378956  -10.863419
