28 
1sre_ligand_ani-2x.xyz
 C   33.157861   12.189125   -5.385283
 C   34.431283   11.927934   -4.829531
 C   34.561275   10.882262   -3.918401
 C   33.482829   10.084202   -3.567825
 C   32.238612   10.329905   -4.137879
 C   32.075201   11.369832   -5.039017
 C   31.685428   14.447074   -7.729553
 C   32.322737   15.678036   -7.582281
 C   32.051039   16.713138   -8.460467
 C   31.134773   16.520958   -9.495237
 C   30.486982   15.292337   -9.641037
 C   30.760762   14.263341   -8.752820
 C   35.726594   12.662771   -5.125593
 N   32.978188   13.306264   -6.267219
 N   31.870446   13.348808   -6.855699
 O   36.744513   12.392874   -4.534560
 O   35.719835   13.604681   -6.070632
 O   30.911071   17.571708  -10.330462
 H   35.550006   10.719626   -3.500714
 H   33.612249    9.272653   -2.857820
 H   31.383990    9.709674   -3.879532
 H   31.109975   11.567325   -5.489605
 H   33.027184   15.799670   -6.764756
 H   32.542317   17.676304   -8.359386
 H   29.767316   15.144926  -10.446391
 H   30.266656   13.299356   -8.835899
 H   34.808411   13.704042   -6.411284
 H   30.262566   17.312275  -10.996617
