28 
1sre_ligand_xtb.xyz
 C   33.149052   12.150696   -5.417125
 C   34.393902   11.980113   -4.774793
 C   34.551050   10.918840   -3.890885
 C   33.514751   10.040420   -3.633434
 C   32.287862   10.213086   -4.261902
 C   32.105639   11.256284   -5.142801
 C   31.756467   14.383685   -7.768843
 C   32.592799   15.514857   -7.812339
 C   32.307180   16.554114   -8.661144
 C   31.186910   16.496387   -9.497007
 C   30.351585   15.379022   -9.458442
 C   30.628902   14.340167   -8.601233
 C   35.583818   12.876619   -4.977276
 N   33.004915   13.222361   -6.279131
 N   31.923641   13.300973   -6.948188
 O   36.621535   12.680050   -4.396696
 O   35.432005   13.892010   -5.816907
 O   30.952591   17.541797  -10.315229
 H   35.512182   10.805212   -3.411930
 H   33.658703    9.223192   -2.943035
 H   31.475279    9.530824   -4.059808
 H   31.160656   11.415946   -5.639526
 H   33.453501   15.565953   -7.163424
 H   32.933523   17.430952   -8.703442
 H   29.484384   15.337058  -10.104151
 H   29.992812   13.469875   -8.561289
 H   34.498630   13.877729   -6.184998
 H   30.155825   17.392879  -10.840522
