19 
1sv3_ligand_aiqm1.xyz
 C   46.503563   30.790988    7.807703
 O   46.527164   30.457467    6.428276
 C   47.562371   30.932199    5.696319
 C   47.543377   30.597467    4.335745
 C   48.560704   31.024219    3.500444
 C   49.615506   31.796801    3.999703
 C   49.613441   32.140133    5.349678
 C   48.604492   31.712373    6.206228
 C   50.739647   32.304231    3.162725
 O   51.469568   33.194832    3.504439
 O   50.930920   31.704428    1.961345
 H   47.382151   30.397220    8.322571
 H   46.450738   31.872079    7.949870
 H   45.608339   30.326722    8.208475
 H   46.719437   30.008923    3.956347
 H   48.496878   30.775210    2.446351
 H   50.423459   32.756000    5.716658
 H   48.635444   31.994294    7.248357
 H   50.344699   30.947714    1.877366
