20 
1sw2_ligand_xtb.xyz
 N   14.378588   19.263164   12.752876
 C   15.061891   18.717554   11.551920
 C   15.129901   17.165994   11.485533
 O   14.670243   16.463726   12.332330
 O   15.737040   16.696293   10.417681
 C   12.975259   18.802123   12.806314
 C   15.080229   18.844337   13.984537
 C   14.394881   20.737708   12.670853
 H   16.086868   19.102054   11.528470
 H   14.535500   19.071750   10.659520
 H   16.081103   17.333990    9.776680
 H   12.941289   17.717613   12.894180
 H   12.478010   19.238098   13.670176
 H   12.442513   19.105538   11.906839
 H   16.115773   19.179152   13.962888
 H   14.590554   19.280436   14.852639
 H   15.056162   17.759996   14.077831
 H   13.898825   21.162505   13.541623
 H   15.418239   21.108793   12.643148
 H   13.872732   21.077776   11.777862
