20 
1sw2_ligand_aiqm1.xyz
 N   14.373398   19.239312   12.758138
 C   15.063337   18.705512   11.553049
 C   15.152959   17.178420   11.466425
 O   14.704029   16.452047   12.301888
 O   15.771367   16.730471   10.385181
 C   12.944678   18.779956   12.812034
 C   15.090373   18.837580   14.015022
 C   14.387433   20.735100   12.661470
 H   16.072732   19.115895   11.546048
 H   14.526771   19.074393   10.679353
 H   16.074214   17.440855    9.811036
 H   12.926485   17.704362   12.934310
 H   12.465841   19.266188   13.656647
 H   12.458992   19.068816   11.883308
 H   16.123405   19.167347   13.937833
 H   14.599659   19.323402   14.853031
 H   15.039607   17.761103   14.118946
 H   13.887227   21.141672   13.534100
 H   15.419313   21.073974   12.629142
 H   13.863778   21.032195   11.756940
