12 
1swi_ligand_ani-2x.xyz
 C  -10.252437   -9.544593   31.468454
 C   -9.984167   -8.667826   32.516327
 C   -8.782128   -7.965398   32.546049
 C   -7.848282   -8.139957   31.527975
 C   -8.116346   -9.017029   30.480263
 C   -9.318496   -9.719149   30.450428
 H  -11.191254  -10.093044   31.444919
 H  -10.713463   -8.531349   33.311573
 H   -8.572767   -7.280377   33.364339
 H   -6.909521   -7.591238   31.551258
 H   -7.387076   -9.153507   29.685118
 H   -9.528064  -10.403933   29.631899
