35 
1t13_ligand_aiqm1.xyz
 N    1.269279    1.032295   -0.551582
 C    2.059599    2.172258   -0.659891
 O    1.602596    3.283662   -0.535762
 N    3.376584    1.915575   -0.911989
 C    4.015487    0.670382   -1.077982
 O    5.209646    0.660226   -1.268546
 C    3.094010   -0.454507   -0.977853
 N    3.610651   -1.768317   -1.170407
 O    2.839294   -2.740519   -0.990251
 O    4.766841   -1.921389   -1.504385
 C    1.726257   -0.248441   -0.702944
 N    0.844458   -1.238072   -0.571203
 C   -0.588069   -1.079004   -0.368222
 C   -0.932547   -0.875421    1.111005
 O   -0.577463   -2.026300    1.874842
 C   -2.422959   -0.707510    1.385954
 O   -3.142417   -1.856538    0.969089
 C   -3.138429    0.470799    0.723867
 O   -3.318599    0.284045   -0.669528
 C   -2.433417    1.809654    0.888306
 O   -1.338308    1.948110   -0.010978
 H    0.297546    1.232781   -0.332797
 H    3.973939    2.724358   -0.984418
 H    1.266535   -2.153200   -0.734400
 H   -1.077441   -1.985501   -0.711232
 H   -0.964243   -0.257065   -0.963412
 H   -0.394733   -0.001060    1.491477
 H    0.363435   -2.182183    1.772018
 H   -2.515990   -0.579755    2.469723
 H   -2.731559   -2.613699    1.393407
 H   -4.112997    0.530341    1.218539
 H   -3.726548   -0.578979   -0.777737
 H   -3.155334    2.609880    0.721249
 H   -2.029253    1.906988    1.895261
 H   -1.715949    2.016205   -0.893920
