35 
1t13_ligand_xtb.xyz
 N    1.278251    1.099074   -0.600326
 C    2.094503    2.215361   -0.745800
 O    1.654428    3.331207   -0.674564
 N    3.404313    1.914977   -0.969587
 C    4.009852    0.650882   -1.046316
 O    5.201205    0.587289   -1.194853
 C    3.063353   -0.452432   -0.919059
 N    3.566467   -1.759917   -1.000238
 O    2.789354   -2.703361   -0.758495
 O    4.721296   -1.952061   -1.288206
 C    1.691752   -0.188753   -0.709017
 N    0.799314   -1.171326   -0.638172
 C   -0.619769   -1.055181   -0.415419
 C   -0.931130   -0.903434    1.085711
 O   -0.547598   -2.064654    1.793804
 C   -2.439430   -0.755971    1.367381
 O   -3.132550   -1.886420    0.893147
 C   -3.134193    0.470982    0.741306
 O   -3.318591    0.300934   -0.644929
 C   -2.374519    1.794267    0.944826
 O   -1.379598    1.975957   -0.033183
 H    0.302755    1.326656   -0.385679
 H    4.038728    2.699626   -1.069489
 H    1.238671   -2.104458   -0.693036
 H   -1.083482   -1.976303   -0.774491
 H   -1.040320   -0.215900   -0.969583
 H   -0.402331   -0.026653    1.484603
 H    0.386990   -2.245488    1.640907
 H   -2.543017   -0.681528    2.461165
 H   -2.686928   -2.662206    1.256905
 H   -4.114715    0.550890    1.235175
 H   -3.690247   -0.582556   -0.766041
 H   -3.088269    2.623885    0.903898
 H   -1.879998    1.806515    1.916716
 H   -1.834645    2.040199   -0.883761
