35 
1t13_ligand_ani-2x.xyz
 N    1.296507    1.069843   -0.481551
 C    2.146915    2.171089   -0.498558
 O    1.765829    3.299687   -0.273810
 N    3.462906    1.882267   -0.795310
 C    4.021427    0.640571   -1.133928
 O    5.168301    0.586459   -1.514772
 C    3.073646   -0.466584   -0.984745
 N    3.582567   -1.793799   -1.107358
 O    2.828299   -2.690591   -1.513365
 O    4.743373   -2.004918   -0.810229
 C    1.718134   -0.226691   -0.703050
 N    0.816135   -1.224271   -0.597052
 C   -0.615682   -1.062778   -0.375878
 C   -0.934100   -0.802443    1.100106
 O   -0.516275   -1.919348    1.881360
 C   -2.423207   -0.669246    1.413173
 O   -3.095494   -1.860467    1.032299
 C   -3.183399    0.475291    0.730017
 O   -3.382662    0.209024   -0.648269
 C   -2.501097    1.839178    0.826633
 O   -1.486730    1.972166   -0.152671
 H    0.317020    1.321317   -0.327875
 H    4.079368    2.679165   -0.862313
 H    1.143152   -2.109259   -0.970664
 H   -1.081860   -2.008993   -0.666334
 H   -1.022470   -0.279055   -1.018741
 H   -0.407680    0.099720    1.439859
 H    0.404360   -2.100884    1.645277
 H   -2.501110   -0.519405    2.501485
 H   -2.523415   -2.584810    1.331123
 H   -4.158693    0.538588    1.239175
 H   -3.538813   -0.748302   -0.702246
 H   -3.249283    2.635484    0.714186
 H   -2.037491    1.960623    1.812036
 H   -1.908580    1.691471   -0.982712
