89 
1t7d_ligand_xtb.xyz
 C   -4.447566    3.732474   -0.020419
 C   -4.774730    2.286964   -0.271724
 O   -4.092257    1.595622   -1.032701
 N   -5.840364    1.778139    0.367492
 C   -6.575051    2.535233    1.357776
 C   -6.182044    0.376741    0.126955
 C   -7.692215    0.082279    0.159856
 O   -8.268929    0.088581    1.435031
 C   -5.408985   -0.516254    1.119434
 O   -5.924122   -1.025411    2.102018
 N   -4.114638   -0.625508    0.812174
 C   -3.168969   -1.419902    1.560392
 C   -1.972351   -0.549012    1.951286
 C   -2.711172   -2.587660    0.676983
 O   -3.071648   -2.704541   -0.473190
 N   -1.897381   -3.484010    1.294526
 C   -1.042083   -4.302911    0.460028
 C    0.102263   -3.401752   -0.028508
 O    0.422842   -2.438597    0.660417
 N    0.651412   -3.670981   -1.219460
 C    0.434690   -4.911303   -1.927809
 C    1.396418   -2.626290   -1.938197
 C    2.884048   -2.598086   -1.504446
 O    3.751386   -2.932381   -2.279309
 N    3.037150   -2.259963   -0.210870
 C    4.271056   -1.902431    0.462544
 C    5.449738   -2.793388    0.076033
 C    4.627675   -0.439914    0.129996
 O    4.606283    0.001026   -0.995475
 N    4.914145    0.316012    1.215102
 C    5.375083    1.680600    1.116784
 C    6.624660    1.822783    1.965275
 O    7.276218    2.959338    1.732468
 O    6.978466    1.013556    2.782874
 C    4.306689    2.691430    1.610079
 C    3.278148    2.977339    0.550229
 C    2.362195    2.012991    0.166209
 C    3.253102    4.206528   -0.097541
 C    2.300442    4.470250   -1.058551
 C    1.372757    3.502185   -1.436153
 O    0.478023    3.839230   -2.394314
 C    1.429702    2.232713   -0.845182
 C    0.629747    1.073029   -1.289784
 C    1.318899   -0.122446   -1.488942
 C    0.670286   -1.301890   -1.808966
 C   -0.705930   -1.270772   -2.009568
 C   -1.405166   -0.093406   -1.851943
 C   -0.757350    1.078079   -1.477374
 O   -1.461300    2.231972   -1.294760
 H   -3.570573    4.006304   -0.601022
 H   -5.281232    4.368738   -0.309141
 H   -4.238679    3.897017    1.034513
 H   -7.000043    3.438338    0.917124
 H   -5.926920    2.819953    2.189584
 H   -7.385608    1.923252    1.744558
 H   -5.821678    0.146830   -0.882908
 H   -8.226453    0.831366   -0.432482
 H   -7.833270   -0.899357   -0.316598
 H   -7.714033   -0.489691    1.993078
 H   -3.774342   -0.220438   -0.052327
 H   -3.691065   -1.801303    2.445093
 H   -2.318947    0.332275    2.486289
 H   -1.434814   -0.232755    1.059262
 H   -1.277232   -1.088193    2.587646
 H   -1.492716   -3.205962    2.176029
 H   -0.668471   -5.150092    1.038391
 H   -1.644128   -4.652950   -0.379083
 H    0.287921   -5.731567   -1.228429
 H    1.320575   -5.126993   -2.524133
 H   -0.430573   -4.846789   -2.594658
 H    1.399961   -2.919373   -2.994258
 H    2.177982   -2.003615    0.271842
 H    4.075530   -1.994780    1.537590
 H    5.212603   -3.834398    0.281564
 H    5.656710   -2.685656   -0.984357
 H    6.328258   -2.506795    0.649797
 H    5.065559   -0.118261    2.114752
 H    5.609909    1.891148    0.067882
 H    8.062319    3.029173    2.298197
 H    3.834639    2.276576    2.504005
 H    4.811060    3.619978    1.880513
 H    2.361666    1.053342    0.661625
 H    3.973129    4.968495    0.163432
 H    2.257874    5.428927   -1.551390
 H   -0.282591    3.239998   -2.339560
 H    2.393234   -0.099114   -1.410743
 H   -1.248684   -2.165066   -2.275139
 H   -2.473448   -0.074642   -2.011715
 H   -2.425189    2.032614   -1.325221
