89 
1t7d_ligand_aiqm1.xyz
 C   -5.058666    3.825108   -0.604691
 C   -5.038702    2.316375   -0.573469
 O   -4.214046    1.698558   -1.257679
 N   -5.926212    1.658383    0.202212
 C   -6.785446    2.318922    1.185389
 C   -5.943629    0.194304    0.134168
 C   -7.344569   -0.415547    0.154146
 O   -8.011690   -0.315117    1.394872
 C   -5.051977   -0.447253    1.213725
 O   -5.497142   -1.220791    2.053264
 N   -3.757736   -0.070711    1.156851
 C   -2.729181   -0.786237    1.881161
 C   -1.492693    0.106241    2.005146
 C   -2.368712   -2.096078    1.162376
 O   -2.747139   -2.364884    0.036942
 N   -1.576177   -2.956517    1.879694
 C   -0.789747   -3.895308    1.102598
 C    0.289802   -3.115867    0.330341
 O    0.812434   -2.151695    0.895952
 N    0.596129   -3.495885   -0.926178
 C    0.051500   -4.723215   -1.491617
 C    1.245617   -2.547830   -1.872196
 C    2.783641   -2.451295   -1.718482
 O    3.470869   -2.456747   -2.723597
 N    3.242194   -2.370814   -0.447265
 C    4.638150   -2.221950   -0.047567
 C    5.600209   -3.143782   -0.777417
 C    5.118440   -0.751111   -0.109994
 O    5.977488   -0.363002   -0.874314
 N    4.510246    0.086390    0.802085
 C    5.111810    1.361275    1.128956
 C    6.265850    1.150392    2.104846
 O    7.069944    2.226675    2.163691
 O    6.431662    0.160621    2.770243
 C    4.100054    2.340113    1.764243
 C    3.083966    2.829819    0.765474
 C    2.093290    1.973760    0.301449
 C    3.152764    4.106335    0.202418
 C    2.242105    4.498193   -0.770766
 C    1.284147    3.607496   -1.258395
 O    0.481260    4.074589   -2.253977
 C    1.226253    2.300912   -0.744806
 C    0.447886    1.173937   -1.325308
 C    1.132982   -0.040407   -1.440110
 C    0.525605   -1.207675   -1.882949
 C   -0.809785   -1.147397   -2.288636
 C   -1.511289    0.050090   -2.215452
 C   -0.892859    1.198934   -1.719141
 O   -1.583972    2.376655   -1.596414
 H   -4.400222    4.149564   -1.403760
 H   -6.060777    4.211657   -0.785447
 H   -4.693413    4.240983    0.334222
 H   -7.835393    2.164838    0.949991
 H   -6.574467    3.382770    1.202219
 H   -6.597592    1.904318    2.175216
 H   -5.496794   -0.058571   -0.829868
 H   -7.961000    0.096183   -0.586469
 H   -7.241685   -1.465653   -0.139772
 H   -7.459700   -0.804986    2.016719
 H   -3.465626    0.416579    0.317269
 H   -3.115390   -1.042947    2.868177
 H   -1.764652    1.036539    2.501549
 H   -1.099308    0.339077    1.012540
 H   -0.695154   -0.374237    2.569083
 H   -1.092245   -2.540969    2.658859
 H   -0.316587   -4.607874    1.776619
 H   -1.457972   -4.427125    0.437399
 H    0.132187   -5.538150   -0.772995
 H    0.651698   -4.987133   -2.358265
 H   -0.994018   -4.617855   -1.793088
 H    1.123138   -2.990217   -2.856625
 H    2.533461   -2.205331    0.256756
 H    4.655463   -2.485586    1.015944
 H    5.290293   -4.180811   -0.643711
 H    5.628945   -2.910076   -1.835846
 H    6.597589   -3.010238   -0.360391
 H    4.031382   -0.366291    1.564372
 H    5.515395    1.791331    0.214786
 H    7.765737    2.020662    2.801683
 H    3.609088    1.823920    2.596730
 H    4.654712    3.185384    2.176121
 H    2.023585    0.978742    0.727899
 H    3.921437    4.800735    0.524537
 H    2.280535    5.488468   -1.207108
 H   -0.347540    3.577537   -2.242143
 H    2.170698   -0.054591   -1.133032
 H   -1.320419   -2.042530   -2.624694
 H   -2.555761    0.091565   -2.507943
 H   -2.537038    2.196177   -1.662986
