61 
1ta2_ligand_aiqm1.xyz
 C   20.030110  -16.228363   24.417403
 C   21.348258  -15.879053   24.120050
 C   21.771056  -14.556874   24.224376
 C   20.864778  -13.581410   24.633139
 C   19.550351  -13.929669   24.928205
 C   19.110621  -15.254324   24.818480
 C   17.657244  -15.570029   25.146199
 C   16.721561  -15.419770   23.927750
 C   16.934066  -14.053841   23.279830
 O   16.525186  -13.040523   23.844612
 N   15.346583  -15.509414   24.399198
 C   17.487772  -16.913371   25.834502
 C   17.368226  -18.124539   25.143408
 C   17.210773  -19.326013   25.831880
 C   17.170353  -19.342333   27.221716
 C   17.283756  -18.145013   27.922035
 C   17.436083  -16.946222   27.231062
 N   17.568825  -13.992546   22.091615
 C   17.805818  -12.692331   21.437508
 C   16.515322  -12.187211   20.753968
 O   16.338444  -12.257424   19.548468
 C   18.913554  -12.968437   20.418744
 C   19.527876  -14.294689   20.857531
 C   18.340505  -15.057738   21.438607
 N   15.629149  -11.650740   21.618590
 C   14.287485  -11.272016   21.201937
 C   13.259682  -11.912460   22.094040
 C   13.137923  -13.297993   22.188075
 C   12.212991  -13.883094   23.038192
 C   11.386233  -13.091313   23.812406
 C   11.496506  -11.712877   23.724093
 C   12.425304  -11.128571   22.878892
Cl   14.143885  -14.322903   21.222647
Cl   10.468744  -10.709717   24.678173
 H   19.734678  -17.267896   24.342015
 H   22.046147  -16.645594   23.808741
 H   22.795109  -14.293164   23.996225
 H   21.179800  -12.550344   24.726074
 H   18.845717  -13.165610   25.232918
 H   17.315338  -14.809120   25.854193
 H   16.952478  -16.200674   23.191231
 H   14.705463  -15.242257   23.663900
 H   15.134627  -16.464671   24.658074
 H   17.405742  -18.143310   24.058083
 H   17.121683  -20.250806   25.276197
 H   17.048937  -20.277204   27.751370
 H   17.250442  -18.139785   29.003540
 H   17.513172  -16.013676   27.776721
 H   18.095812  -11.972273   22.205280
 H   18.451535  -13.077233   19.441142
 H   19.629630  -12.150037   20.365304
 H   20.274017  -14.140163   21.640391
 H   19.994792  -14.834227   20.034914
 H   18.657261  -15.803397   22.159337
 H   17.742387  -15.535466   20.661454
 H   15.816548  -11.809831   22.601240
 H   14.168049  -10.186233   21.225588
 H   14.167915  -11.612632   20.169068
 H   12.135936  -14.957491   23.091053
 H   10.665618  -13.539638   24.476934
 H   12.501144  -10.053447   22.828685
