70 
1tl9_ligand_xtb.xyz
 C   -1.097822   -0.554915    1.980685
 O   -1.292041    0.614022    1.664545
 C   -0.648217   -0.969198    3.358146
 N   -1.268346   -1.595907    1.144023
 C   -1.653104   -1.510368   -0.262092
 C   -0.535170   -0.796679   -1.042945
 O    0.335094   -1.431791   -1.613758
 C   -3.033841   -0.870308   -0.429122
 C   -4.165494   -1.771906    0.083411
 C   -5.431304   -0.941990    0.288839
 C   -4.448974   -2.921935   -0.879791
 N   -0.573356    0.545229   -1.004352
 C    0.490675    1.364276   -1.539658
 C    1.546581    1.720225   -0.470136
 O    2.254930    2.700199   -0.566791
 C   -0.074578    2.640754   -2.158670
 C   -1.037768    2.390570   -3.323178
 C   -1.655950    3.716651   -3.761829
 C   -0.338355    1.721419   -4.503912
 N    1.605390    0.827514    0.532649
 C    2.479148    0.900267    1.688391
 C    2.085106    2.109011    2.558581
 O    0.868049    1.910604    3.228187
 C    3.963216    0.953240    1.302896
 C    4.369871    0.053106    0.127370
 C    3.770559   -1.362137    0.111012
 N    3.768900   -1.989491    1.407355
 C    2.675471   -2.508418    2.042510
 N    1.489134   -2.642309    1.591453
 N    2.942685   -2.956620    3.320904
 H    0.154905   -1.697201    3.263074
 H   -0.308770   -0.098923    3.913246
 H   -1.481103   -1.427937    3.887088
 H   -0.872706   -2.474408    1.447170
 H   -1.671324   -2.536120   -0.639888
 H   -3.194484   -0.646971   -1.485600
 H   -3.060883    0.066264    0.128216
 H   -3.862689   -2.186280    1.051541
 H   -5.259593   -0.150838    1.015088
 H   -6.243406   -1.568076    0.650713
 H   -5.741691   -0.486970   -0.649402
 H   -4.768632   -2.534599   -1.844977
 H   -3.568777   -3.540656   -1.034191
 H   -5.240745   -3.555596   -0.487144
 H   -1.190757    0.986393   -0.331723
 H    1.006961    0.762294   -2.297124
 H   -0.595204    3.196609   -1.374481
 H    0.765824    3.251131   -2.491528
 H   -1.840223    1.730397   -2.974375
 H   -2.176973    4.192813   -2.934356
 H   -0.881790    4.394395   -4.114420
 H   -2.367603    3.558938   -4.568993
 H   -1.019324    1.644421   -5.348676
 H   -0.007967    0.717677   -4.249665
 H    0.526112    2.305122   -4.812674
 H    0.986340    0.035968    0.500954
 H    2.281206   -0.005048    2.269594
 H    2.834355    2.257047    3.340234
 H    2.054055    3.004262    1.925994
 H    0.159121    1.750318    2.582508
 H    4.540745    0.689844    2.191132
 H    4.213155    1.979196    1.030304
 H    5.459941   -0.019992    0.135382
 H    4.083525    0.536947   -0.806873
 H    4.342362   -1.971799   -0.601611
 H    2.742898   -1.323332   -0.253046
 H    4.659599   -2.068833    1.870056
 H    1.396400   -2.435381    0.602433
 H    2.122099   -3.219672    3.841663
 H    3.634655   -2.454621    3.853237
