70 
1tl9_ligand_ani-2x.xyz
 C   -1.075089   -0.566723    1.999858
 O   -1.431480    0.596039    1.783137
 C   -0.467507   -0.973697    3.326002
 N   -1.215877   -1.569664    1.091406
 C   -1.704729   -1.376615   -0.277898
 C   -0.654344   -0.571379   -1.063462
 O    0.262454   -1.147961   -1.645233
 C   -3.133264   -0.829358   -0.351854
 C   -4.185641   -1.696591    0.353514
 C   -5.559363   -1.041045    0.207159
 C   -4.217604   -3.129648   -0.177171
 N   -0.730989    0.784236   -1.001081
 C    0.401262    1.596994   -1.426911
 C    1.333695    1.950164   -0.250405
 O    1.825457    3.061784   -0.124667
 C   -0.031595    2.847321   -2.184464
 C   -0.996221    2.578938   -3.346636
 C   -1.298018    3.885621   -4.080065
 C   -0.454408    1.526233   -4.317170
 N    1.566832    0.921284    0.609901
 C    2.489934    0.948737    1.737965
 C    2.148748    2.096716    2.691662
 O    0.854198    1.974557    3.241133
 C    3.965501    0.968920    1.314348
 C    4.369427    0.068362    0.129257
 C    3.714230   -1.317999    0.023703
 N    3.577304   -1.978993    1.311849
 C    2.499661   -2.803312    1.620932
 N    1.410366   -2.981990    0.967180
 N    2.681579   -3.459507    2.832100
 H    0.220346   -1.816301    3.205231
 H    0.064277   -0.113890    3.741257
 H   -1.261595   -1.268739    4.022309
 H   -0.580112   -2.357706    1.208567
 H   -1.675741   -2.367301   -0.739087
 H   -3.398037   -0.731517   -1.414576
 H   -3.168533    0.173250    0.083464
 H   -3.937006   -1.731988    1.422271
 H   -5.558944   -0.022320    0.611322
 H   -6.329906   -1.613583    0.735389
 H   -5.849547   -0.984129   -0.849998
 H   -4.412535   -3.143242   -1.257966
 H   -3.275032   -3.657755    0.004855
 H   -5.013306   -3.703138    0.311393
 H   -1.306169    1.172293   -0.261553
 H    0.980080    0.937594   -2.086243
 H   -0.491799    3.553658   -1.480908
 H    0.874116    3.343255   -2.555145
 H   -1.934977    2.195410   -2.925340
 H   -1.705794    4.641147   -3.398600
 H   -0.384807    4.296409   -4.529904
 H   -2.025092    3.728809   -4.884719
 H   -1.141826    1.390684   -5.159231
 H   -0.327182    0.548039   -3.835946
 H    0.518651    1.830687   -4.725813
 H    1.251551    0.001483    0.341071
 H    2.299088    0.013900    2.280963
 H    2.846685    2.072642    3.538275
 H    2.273787    3.050422    2.163595
 H    0.209531    1.841038    2.525693
 H    4.547549    0.689891    2.202822
 H    4.250552    2.000040    1.066782
 H    5.458093   -0.056615    0.171968
 H    4.168015    0.585892   -0.818290
 H    4.293422   -1.931886   -0.681744
 H    2.722102   -1.215472   -0.418577
 H    4.448848   -2.296197    1.718086
 H    1.426663   -2.564752    0.039309
 H    1.845104   -3.929702    3.151616
 H    3.135057   -2.921832    3.556909
