70 
1tl9_ligand_aiqm1.xyz
 C   -1.509755   -0.291037    1.997556
 O   -1.975092    0.766234    1.579661
 C   -1.016122   -0.443698    3.414903
 N   -1.360822   -1.395689    1.226574
 C   -1.644328   -1.469517   -0.203023
 C   -0.548622   -0.707520   -0.967980
 O    0.399157   -1.310795   -1.463651
 C   -3.068983   -1.065985   -0.574497
 C   -4.157093   -1.835536    0.176999
 C   -5.528106   -1.311917   -0.244688
 C   -4.077073   -3.342651   -0.054204
 N   -0.628878    0.635700   -0.964927
 C    0.448037    1.472651   -1.471108
 C    1.581928    1.698398   -0.448815
 O    2.393520    2.598553   -0.601423
 C   -0.094980    2.802912   -1.976935
 C   -1.050735    2.683422   -3.163637
 C   -1.630367    4.056784   -3.497154
 C   -0.364086    2.091331   -4.392886
 N    1.619586    0.818318    0.579206
 C    2.658149    0.788422    1.610256
 C    2.489129    1.999407    2.531580
 O    1.247261    1.977685    3.219779
 C    4.086144    0.718764    1.057247
 C    4.315966   -0.195992   -0.148776
 C    3.645652   -1.577550   -0.097354
 N    3.683905   -2.197917    1.219969
 C    2.554184   -2.632042    1.875077
 N    1.331943   -2.511294    1.487803
 N    2.834368   -3.235147    3.090359
 H   -1.076936   -1.478446    3.749852
 H    0.025527   -0.126061    3.459656
 H   -1.595724    0.201508    4.069114
 H   -0.699559   -2.088724    1.560706
 H   -1.488334   -2.510380   -0.478145
 H   -3.193169   -1.228229   -1.651479
 H   -3.212778   -0.001956   -0.388594
 H   -4.030512   -1.642649    1.247071
 H   -5.602315   -0.234995   -0.091623
 H   -6.323181   -1.793487    0.325945
 H   -5.704085   -1.518230   -1.304568
 H   -4.174500   -3.574883   -1.119210
 H   -3.137833   -3.769135    0.303279
 H   -4.889259   -3.849735    0.469559
 H   -1.316659    1.058601   -0.353268
 H    0.916760    0.923052   -2.288706
 H   -0.611977    3.303850   -1.148995
 H    0.751367    3.433668   -2.253163
 H   -1.878621    2.022591   -2.879518
 H   -2.136672    4.494651   -2.635563
 H   -0.833831    4.740147   -3.803546
 H   -2.348454    3.990683   -4.315988
 H   -1.054848    2.059482   -5.237558
 H   -0.008637    1.074145   -4.221199
 H    0.492397    2.705511   -4.685209
 H    0.967988    0.053452    0.560038
 H    2.461647   -0.105197    2.209222
 H    3.261345    1.979175    3.299497
 H    2.597407    2.911660    1.939342
 H    0.548120    2.093487    2.571539
 H    4.724127    0.397932    1.888219
 H    4.396818    1.726107    0.782476
 H    5.396043   -0.321742   -0.264249
 H    3.961420    0.299489   -1.052954
 H    4.125424   -2.239379   -0.824525
 H    2.612630   -1.491883   -0.410246
 H    4.543817   -2.650422    1.484111
 H    1.291618   -2.214576    0.516925
 H    2.009529   -3.383654    3.647790
 H    3.600116   -2.829824    3.601654
