21 
1tnj_ligand_dft.xyz
 C    0.035511   -0.244915   -0.570938
 C   -0.688882   -1.289358    0.013651
 C   -1.977236   -1.072575    0.489061
 C   -2.555356    0.192738    0.396010
 C   -1.844362    1.239543   -0.180718
 C   -0.553128    1.021970   -0.661395
 C    1.465176   -0.460667   -1.018043
 C    2.414544   -0.458523    0.181930
 N    2.208296    0.815379    0.971208
 H   -0.250830   -2.282956    0.077425
 H   -2.535486   -1.894099    0.926049
 H   -3.562861    0.357476    0.763276
 H   -2.296074    2.221932   -0.272767
 H   -0.019959    1.834807   -1.152538
 H    1.771099    0.307462   -1.737930
 H    1.585262   -1.425701   -1.519978
 H    3.468068   -0.500418   -0.099132
 H    2.188070   -1.276388    0.868599
 H    2.649844    0.785864    1.894323
 H    2.575864    1.630372    0.470781
 H    1.191330    0.964712    1.086083
