21 
1toi_ligand_dft.xyz
 C   -2.332542   -0.273631    0.166060
 O   -2.297275   -1.148580   -0.657558
 O   -3.008315   -0.461451    1.320039
 C   -1.708283    1.103684   -0.016055
 C   -0.579238    1.111179   -1.053710
 C    0.691454    0.481411   -0.528791
 C    1.631240    1.259418    0.152166
 C    2.786754    0.688413    0.676449
 C    3.018514   -0.675993    0.525217
 C    2.089086   -1.460379   -0.152043
 C    0.933752   -0.886658   -0.675109
 H   -2.928856    0.318299    1.884753
 H   -1.336538    1.484572    0.943811
 H   -2.518921    1.774181   -0.332951
 H   -0.382495    2.149441   -1.341830
 H   -0.928232    0.583030   -1.945664
 H    1.458666    2.327842    0.266937
 H    3.508609    1.310036    1.198457
 H    3.920566   -1.124731    0.930668
 H    2.263047   -2.525303   -0.275825
 H    0.204459   -1.501781   -1.193312
