46 
1tsm_ligand_ani-2x.xyz
 C   19.132439   52.297725  -54.534281
 C   19.495983   51.270619  -53.525289
 C   20.062127   50.094283  -53.957127
 C   20.372859   49.098099  -53.026503
 C   20.121786   49.280758  -51.683677
 C   19.553466   50.490818  -51.196741
 C   19.223777   50.788406  -49.841392
 C   18.607905   51.963777  -49.477586
 C   18.370749   52.952929  -50.434512
 C   18.742359   52.769691  -51.747824
 C   19.248306   51.508988  -52.156086
 C   18.710487   53.897263  -52.765433
 C   17.562495   54.864204  -52.476691
 C   16.260170   54.409931  -52.701106
 C   15.159202   55.200888  -52.422291
 C   15.347799   56.484469  -51.907343
 C   16.638435   56.960818  -51.681004
 C   17.730799   56.150744  -51.967942
 C   20.062161   54.627852  -52.888967
 C   20.296148   55.412243  -54.022436
 C   21.466938   56.134348  -54.173693
 C   22.449500   56.065967  -53.184442
 C   22.249553   55.264006  -52.062462
 C   21.066890   54.545867  -51.927831
 N   19.513557   49.858222  -48.736354
 O   18.385598   53.327962  -54.064656
 O   19.409938   52.221155  -55.704387
 O   14.235568   57.223126  -51.648821
 O   23.581209   56.795346  -53.375395
 O   18.854980   49.978869  -47.717172
 O   20.401464   49.033024  -48.878274
 H   20.250518   49.959215  -55.016753
 H   20.816811   48.164367  -53.361225
 H   20.361840   48.498168  -50.977929
 H   18.325127   52.116093  -48.443880
 H   17.899780   53.884922  -50.136897
 H   16.128513   53.411148  -53.109404
 H   14.146894   54.847532  -52.597396
 H   16.790355   57.962540  -51.282599
 H   18.741829   56.516336  -51.799436
 H   19.529395   55.448740  -54.791883
 H   21.643608   56.752247  -55.048970
 H   23.019278   55.194277  -51.295220
 H   20.928849   53.893313  -51.067701
 H   14.501771   58.083097  -51.299967
 H   24.175184   56.658508  -52.626620
