29 
1tuf_ligand_xtb.xyz
 C   55.974613   12.039556   20.756492
 C   57.424341   11.985522   21.200758
 C   58.251178   13.089008   20.544814
 C   59.674649   13.185008   21.091994
 C   60.539349   11.977415   20.731555
 C   61.975410   12.091098   21.245668
 C   62.800071   13.146617   20.509901
 C   64.249894   13.170015   21.010190
 C   64.950830   11.845734   20.767753
 O   55.191117   11.078524   21.288566
 O   55.520901   12.847710   20.002993
 O   65.124851   11.524617   19.472433
 O   65.332280   11.116626   21.635358
 H   57.822618   10.999574   20.946301
 H   57.453900   12.093412   22.289835
 H   57.738087   14.038492   20.706737
 H   58.280066   12.917955   19.467581
 H   59.640992   13.292900   22.178785
 H   60.129882   14.088663   20.684632
 H   60.551003   11.852938   19.646138
 H   60.099233   11.076737   21.162793
 H   62.466762   11.122063   21.131894
 H   61.961200   12.325281   22.311984
 H   62.367682   14.135924   20.665963
 H   62.768797   12.940504   19.435532
 H   64.266366   13.366004   22.082543
 H   64.808496   13.961985   20.503296
 H   55.672741   10.488482   21.882672
 H   64.773289   12.199437   18.876835
