18 
1u1w_ligand_aiqm1.xyz
 O    8.584432   30.468880   23.550065
 C    7.763737   31.161383   22.999823
 O    7.127727   32.114434   23.714206
 C    7.369413   31.028537   21.565659
 C    6.812828   32.114851   20.872094
 C    6.427237   31.987684   19.546383
 C    6.607521   30.776786   18.878582
 C    7.189022   29.710998   19.541780
 O    7.386337   28.533663   18.882972
 C    7.566707   29.811573   20.893406
 N    8.179863   28.687879   21.461889
 H    6.426559   32.504471   23.185023
 H    6.718426   33.080259   21.354782
 H    6.004219   32.834680   19.024963
 H    6.327204   30.657346   17.839864
 H    8.109352   28.078568   19.329378
 H    8.512482   28.865746   22.399146
 H    7.597336   27.859163   21.425384
