18 
1u1w_ligand_xtb.xyz
 O    8.414388   30.347877   23.600562
 C    7.709589   31.134494   23.007386
 O    7.154487   32.147220   23.694688
 C    7.375042   31.030540   21.571797
 C    6.811099   32.108338   20.873477
 C    6.413717   31.977649   19.563586
 C    6.589318   30.769641   18.900786
 C    7.184117   29.706653   19.546986
 O    7.393314   28.549284   18.856859
 C    7.578660   29.808517   20.900493
 N    8.202344   28.728766   21.483396
 H    6.566585   32.686232   23.149394
 H    6.709738   33.076934   21.345428
 H    5.978854   32.815570   19.042218
 H    6.295704   30.648957   17.870607
 H    8.074776   28.033279   19.306741
 H    8.456923   28.886152   22.453439
 H    7.801748   27.820796   21.297556
