25 
1u2y_ligand_aiqm1.xyz
 C    0.596636    1.199286    0.748383
 N    1.058423    2.344752    1.108734
 C    1.507344    0.021427    1.000775
 N   -0.668139    0.956540    0.286690
 O    0.094262    3.349581    0.886616
 O    2.868859    0.387857    1.027909
 C    1.324128   -1.033521   -0.074683
 O    1.995648   -2.233146    0.269609
 C   -0.145590   -1.373730   -0.220696
 O   -0.341563   -2.370052   -1.203789
 C   -0.909319   -0.135451   -0.658050
 C   -2.400168   -0.379061   -0.745646
 O   -2.979125    0.850951   -1.174547
 H    1.216229   -0.418436    1.965462
 H   -1.209008    1.788725    0.098039
 H    0.555040    4.142448    1.162708
 H    2.901374    1.324421    1.251662
 H    1.704373   -0.643837   -1.025678
 H    2.923573   -2.022593    0.394655
 H   -0.520163   -1.717533    0.754599
 H    0.291956   -3.070259   -1.022916
 H   -0.555464    0.133597   -1.663411
 H   -2.781558   -0.666452    0.239676
 H   -2.597276   -1.181948   -1.458845
 H   -3.930574    0.746634   -1.205756
