70 
1u33_ligand_ani-2x.xyz
 C   -6.153272   -1.594194    0.166675
 N   -7.221342   -2.246776    0.448013
 O   -7.406176   -2.306257    1.835622
 C   -5.862634   -1.362287   -1.297449
 O   -6.475093   -2.309256   -2.139531
 C   -4.364611   -1.415761   -1.548843
 O   -4.086448   -1.110930   -2.907824
 C   -3.653358   -0.421640   -0.644989
 O   -2.254165   -0.460673   -0.897682
 C   -3.893185   -0.797131    0.815761
 N   -5.305281   -1.027121    1.074421
 C   -3.443998    0.298145    1.773164
 O   -3.685186   -0.197173    3.077833
 C   -1.774272    0.474929   -1.834916
 C   -0.770245   -0.213782   -2.765665
 C    0.449442   -0.629314   -1.961488
 C    1.018651    0.586578   -1.254859
 C   -0.058313    1.207210   -0.367798
 C    0.401464    2.487795    0.312558
 O   -1.295066   -1.365837   -3.385857
 O    1.444835   -1.185256   -2.806983
 O    2.126867    0.195376   -0.461017
 O   -1.183245    1.567753   -1.185322
 O    0.964281    3.410389   -0.600552
 C    3.388099    0.447753   -1.033740
 C    4.330401   -0.733147   -0.805389
 C    4.705902   -0.870854    0.664398
 C    5.183271    0.463470    1.239675
 C    4.135395    1.528715    0.913373
 C    4.449298    2.941573    1.369406
 O    3.765476   -1.959456   -1.215919
 O    5.729302   -1.837191    0.778621
 O    5.296631    0.425850    2.641408
 O    3.941347    1.613663   -0.505863
 O    3.293824    3.752419    1.288946
 C    6.465665   -0.215967    3.118151
 H   -8.220227   -2.816956    1.918778
 H   -6.209584   -0.345788   -1.555950
 H   -7.253564   -2.639411   -1.662546
 H   -4.001657   -2.429947   -1.321753
 H   -4.720156   -1.621171   -3.434255
 H   -4.039599    0.591795   -0.835541
 H   -3.306319   -1.704565    1.029741
 H   -5.544571   -1.178758    2.046935
 H   -2.379988    0.537875    1.620254
 H   -4.034557    1.206329    1.577521
 H   -3.609405    0.532178    3.703070
 H   -2.611741    0.870184   -2.421406
 H   -0.450463    0.511874   -3.533262
 H    0.143988   -1.374208   -1.214411
 H    1.323991    1.333933   -2.001614
 H   -0.365861    0.478664    0.395394
 H    1.174167    2.265097    1.052523
 H   -0.450661    2.932499    0.843896
 H   -2.267259   -1.315885   -3.349080
 H    0.989119   -1.827846   -3.371234
 H    0.273020    3.623850   -1.243370
 H    3.274455    0.611470   -2.113657
 H    5.260429   -0.538350   -1.367434
 H    3.811652   -1.182585    1.225498
 H    6.148694    0.731296    0.776885
 H    3.194326    1.223117    1.395216
 H    5.270911    3.344406    0.756159
 H    4.767695    2.940294    2.416327
 H    3.041051   -1.773983   -1.839890
 H    5.378757   -2.645180    0.377731
 H    2.892486    3.630329    0.409806
 H    6.537947    0.018199    4.183571
 H    6.418101   -1.300310    2.976568
 H    7.360564    0.169937    2.608890
