70 
1u33_ligand_xtb.xyz
 C   -5.660437   -1.645305    0.752564
 N   -6.581537   -2.247719    1.398805
 O   -6.907123   -1.685683    2.653032
 C   -5.323649   -2.233363   -0.593810
 O   -5.613965   -3.604895   -0.670593
 C   -3.837675   -2.022049   -0.898967
 O   -3.527407   -2.454381   -2.201121
 C   -3.504494   -0.529212   -0.792039
 O   -2.142497   -0.378186   -1.134721
 C   -3.763914   -0.036071    0.637820
 N   -5.038000   -0.505622    1.127879
 C   -3.745598    1.494091    0.723883
 O   -3.807667    1.840877    2.088422
 C   -1.781699    0.591231   -2.077244
 C   -0.796173   -0.070084   -3.055637
 C    0.464531   -0.456403   -2.269402
 C    1.044890    0.787412   -1.588952
 C   -0.032398    1.463461   -0.722897
 C    0.446734    2.825437   -0.207210
 O   -1.355151   -1.178102   -3.698001
 O    1.439591   -1.007792   -3.121865
 O    2.128764    0.362427   -0.791744
 O   -1.219256    1.722158   -1.476094
 O    0.690500    3.717996   -1.259765
 C    3.351788    1.047783   -0.885304
 C    4.451328   -0.002180   -1.097538
 C    4.513152   -0.923917    0.132813
 C    4.727423   -0.078207    1.400731
 C    3.675539    1.041332    1.456246
 C    3.981182    2.037357    2.581310
 O    4.257774   -0.746117   -2.268285
 O    5.563065   -1.846807   -0.039071
 O    4.562319   -0.814154    2.588495
 O    3.616294    1.806932    0.255540
 O    3.025783    3.059465    2.648851
 C    5.671104   -1.613779    2.945032
 H   -7.598248   -2.269960    2.988662
 H   -5.909153   -1.695473   -1.362664
 H   -6.274954   -3.792113    0.011059
 H   -3.233876   -2.580822   -0.167895
 H   -3.950578   -3.314991   -2.321287
 H   -4.135642    0.021081   -1.503502
 H   -2.947615   -0.412044    1.274864
 H   -5.277157   -0.166018    2.051271
 H   -2.827376    1.871819    0.259124
 H   -4.613637    1.895639    0.180875
 H   -3.749729    2.797236    2.178015
 H   -2.662342    0.962267   -2.620955
 H   -0.522020    0.648213   -3.838401
 H    0.190111   -1.185854   -1.492040
 H    1.386254    1.492137   -2.359334
 H   -0.263515    0.800549    0.120650
 H    1.388464    2.699202    0.327238
 H   -0.306511    3.231064    0.481927
 H   -1.943344   -1.649211   -3.080246
 H    0.975693   -1.567561   -3.759955
 H   -0.109349    3.755159   -1.798947
 H    3.339692    1.765369   -1.716705
 H    5.417388    0.507017   -1.203303
 H    3.553609   -1.456546    0.228164
 H    5.739568    0.356033    1.358313
 H    2.697872    0.574666    1.635726
 H    4.984138    2.455554    2.416976
 H    3.958048    1.513283    3.537098
 H    3.307077   -0.918408   -2.386283
 H    5.567007   -2.085417   -0.977512
 H    3.001008    3.487146    1.783632
 H    5.396201   -2.103224    3.877170
 H    5.888982   -2.360386    2.179317
 H    6.560810   -0.993339    3.103484
