70 
1u33_ligand_aiqm1.xyz
 C   -6.238500   -1.440460    0.182820
 N   -7.326788   -2.011295    0.559801
 O   -7.568290   -1.749998    1.921689
 C   -5.898868   -1.581399   -1.279796
 O   -6.483529   -2.717186   -1.873037
 C   -4.395908   -1.682435   -1.465296
 O   -4.054329   -1.634659   -2.841979
 C   -3.716359   -0.512849   -0.772851
 O   -2.314919   -0.606884   -1.002326
 C   -4.004657   -0.573721    0.725923
 N   -5.450896   -0.624446    0.951487
 C   -3.450204    0.617896    1.480303
 O   -3.744765    0.380214    2.852205
 C   -1.775342    0.401396   -1.838718
 C   -0.760189   -0.232544   -2.788444
 C    0.447533   -0.723075   -2.012061
 C    1.011204    0.453649   -1.240564
 C   -0.050367    1.004826   -0.289055
 C    0.415321    2.230619    0.469605
 O   -1.282133   -1.286508   -3.570079
 O    1.471429   -1.208160   -2.872688
 O    2.157191    0.038924   -0.513526
 O   -1.197499    1.415597   -1.061364
 O    0.943149    3.225463   -0.393047
 C    3.369565    0.581876   -1.004177
 C    4.458529   -0.478963   -0.934775
 C    4.808006   -0.820380    0.505557
 C    5.175790    0.459417    1.246577
 C    4.025143    1.458961    1.107711
 C    4.301322    2.820542    1.710789
 O    4.134479   -1.667183   -1.635272
 O    5.902527   -1.722202    0.536097
 O    5.347684    0.270560    2.633256
 O    3.725096    1.717560   -0.271446
 O    3.139843    3.626773    1.674151
 C    6.585826   -0.324502    2.996098
 H   -8.375351   -2.238078    2.087942
 H   -6.248391   -0.671752   -1.788027
 H   -7.234743   -2.965291   -1.323608
 H   -4.049101   -2.623526   -1.026595
 H   -4.599142   -2.281031   -3.299195
 H   -4.104580    0.423319   -1.193250
 H   -3.519835   -1.474059    1.125264
 H   -5.708918   -0.601659    1.928283
 H   -2.372771    0.696215    1.309484
 H   -3.935956    1.533323    1.126263
 H   -3.460701    1.138155    3.363587
 H   -2.571847    0.880777   -2.411308
 H   -0.438537    0.559329   -3.472342
 H    0.135931   -1.516461   -1.324056
 H    1.281195    1.236701   -1.956646
 H   -0.347110    0.234328    0.432842
 H    1.227687    1.955883    1.137810
 H   -0.423270    2.620735    1.055542
 H   -2.163806   -1.531131   -3.262617
 H    1.058821   -1.807647   -3.499895
 H    0.209981    3.595607   -0.890620
 H    3.240023    0.912377   -2.036378
 H    5.345194   -0.045756   -1.410385
 H    3.930908   -1.269348    0.990868
 H    6.094097    0.871041    0.801988
 H    3.145947    1.031964    1.608061
 H    5.131096    3.296101    1.172025
 H    4.577090    2.705811    2.758800
 H    3.216945   -1.637001   -1.932510
 H    5.697562   -2.423853   -0.087618
 H    2.849903    3.687276    0.758802
 H    6.683906   -0.198643    4.072666
 H    6.606157   -1.380996    2.742474
 H    7.415520    0.181866    2.494480
