27 
1u3q_ligand_ani-2x.xyz
 C   19.814725   -4.143629   17.270586
 C   20.246733   -4.597664   16.032851
 C   19.325335   -4.493245   14.997923
 C   18.041448   -3.988004   15.149926
 C   17.632005   -3.524128   16.404949
 C   18.520831   -3.607279   17.457487
 O   19.522595   -4.851805   13.713073
 N   18.369142   -4.587173   12.991303
 C   17.488588   -4.092801   13.820165
 C   16.106135   -3.795765   13.421660
 C   15.785765   -3.113793   12.232980
 C   14.458785   -2.862632   11.894539
 C   13.432074   -3.291535   12.726885
 C   13.723466   -3.973501   13.907505
 C   15.049232   -4.209717   14.233945
 O   12.161339   -3.015967   12.334652
 O   16.793157   -2.687306   11.439195
 O   20.703039   -4.237940   18.294277
 H   21.243282   -5.001034   15.900848
 H   16.644072   -3.100025   16.550205
 H   18.226305   -3.257661   18.445368
 H   14.203447   -2.330074   10.979781
 H   12.924183   -4.316099   14.560180
 H   15.274686   -4.750893   15.149711
 H   11.545159   -3.363517   12.991577
 H   16.414234   -2.241355   10.670816
 H   20.299238   -3.893959   19.100414
