27 
1u3q_ligand_xtb.xyz
 C   19.826565   -4.141705   17.245397
 C   20.258704   -4.551475   15.994031
 C   19.333592   -4.486446   14.965772
 C   18.011842   -4.040804   15.159494
 C   17.603949   -3.617471   16.421049
 C   18.516094   -3.676182   17.448322
 O   19.508288   -4.808106   13.672194
 N   18.335950   -4.581648   13.003833
 C   17.444648   -4.136545   13.841050
 C   16.078299   -3.816351   13.451695
 C   15.805349   -3.149600   12.245797
 C   14.492755   -2.867682   11.898979
 C   13.441964   -3.241846   12.727563
 C   13.708953   -3.899126   13.922692
 C   15.016256   -4.175718   14.272181
 O   12.179174   -2.941915   12.328581
 O   16.837448   -2.763341   11.467062
 O   20.714191   -4.197053   18.270721
 H   21.266915   -4.895290   15.842941
 H   16.605294   -3.244767   16.586253
 H   18.228704   -3.354219   18.440769
 H   14.265518   -2.353794   10.976112
 H   12.896214   -4.196690   14.570711
 H   15.219512   -4.707120   15.189381
 H   11.545162   -3.259439   12.982893
 H   16.506134   -2.343176   10.663614
 H   20.301526   -3.880991   19.083713
