27 
1u3q_ligand_aiqm1.xyz
 C   19.838102   -4.101694   17.238207
 C   20.247570   -4.626733   16.021237
 C   19.304182   -4.569131   15.003736
 C   18.030728   -4.036639   15.151422
 C   17.641130   -3.511015   16.386657
 C   18.553064   -3.549592   17.424989
 O   19.474213   -5.011969   13.739153
 N   18.285996   -4.772367   13.024279
 C   17.448912   -4.196549   13.843309
 C   16.077243   -3.847810   13.438532
 C   15.794294   -3.067511   12.305736
 C   14.481867   -2.786321   11.945713
 C   13.433728   -3.271600   12.719097
 C   13.685209   -4.025958   13.862248
 C   15.004131   -4.295360   14.207476
 O   12.172634   -2.963855   12.305990
 O   16.836532   -2.569985   11.592561
 O   20.739296   -4.142350   18.260286
 H   21.233945   -5.043813   15.886164
 H   16.659719   -3.080184   16.533796
 H   18.283566   -3.149522   18.394736
 H   14.255272   -2.192868   11.066719
 H   12.871568   -4.400649   14.468661
 H   15.210894   -4.885911   15.090074
 H   11.541898   -3.362594   12.909099
 H   16.497568   -2.123664   10.814070
 H   20.345741   -3.742854   19.038853
