27 
1u3q_ligand_dft.xyz
 C   -3.955778   -0.716477   -0.227587
 C   -3.653121    0.571157    0.194887
 C   -2.299886    0.864820    0.319413
 C   -1.283194   -0.047308    0.051078
 C   -1.607770   -1.334705   -0.385211
 C   -2.944209   -1.661041   -0.518395
 O   -1.766532    2.040415    0.694685
 N   -0.373667    1.924626    0.687357
 C   -0.085311    0.709542    0.309271
 C    1.299704    0.219613    0.208495
 C    2.311850    0.936579   -0.455776
 C    3.602661    0.421210   -0.536647
 C    3.903444   -0.811530    0.037416
 C    2.913258   -1.542009    0.693591
 C    1.630167   -1.015597    0.765897
 O    5.182761   -1.247456   -0.080695
 O    1.985407    2.117781   -1.024221
 O   -5.270448   -1.030396   -0.355086
 H   -4.434330    1.290389    0.406522
 H   -0.833702   -2.058145   -0.621155
 H   -3.228143   -2.654834   -0.856536
 H    4.391446    0.966047   -1.047844
 H    3.140912   -2.502734    1.147584
 H    0.858248   -1.572232    1.289703
 H    5.269035   -2.100170    0.362038
 H    2.766238    2.492782   -1.448885
 H   -5.354443   -1.941759   -0.658994
