32 
1u3r_ligand_ani-2x.xyz
 C   25.390142   35.830667   41.284671
 C   26.660308   35.257925   41.336004
 C   27.521365   35.618728   40.318333
 C   27.196211   36.491508   39.284795
 C   25.918198   37.056574   39.248945
 C   25.026068   36.717468   40.254580
 O   28.802732   35.215097   40.125468
 C   29.210620   35.860834   38.976119
 N   28.303248   36.618402   38.450233
 C   30.597398   35.565022   38.568986
 C   31.214985   36.133356   37.402708
 C   32.563751   35.764228   37.122119
 C   33.257083   34.868504   37.971122
 C   32.635511   34.344928   39.076071
 C   31.307869   34.695532   39.370401
 C   30.561421   37.038204   36.516200
 C   31.217770   37.538265   35.422854
 C   32.548726   37.180065   35.137886
 C   33.206264   36.311682   35.970514
 O   24.528815   35.487441   42.277855
 O   34.493847   35.921804   35.755753
 H   26.923899   34.576679   42.136492
 H   25.628709   37.741627   38.458186
 H   24.024629   37.145816   40.246793
 H   34.281112   34.608873   37.728915
 H   33.162816   33.656602   39.731352
 H   30.829335   34.273865   40.247183
 H   29.538374   37.321056   36.724884
 H   30.708007   38.227528   34.754687
 H   33.045768   37.593490   34.260994
 H   23.688234   35.940896   42.139316
 H   34.825685   36.350435   34.955678
