32 
1u3r_ligand_xtb.xyz
 C   25.393790   35.883613   41.222916
 C   26.638948   35.275363   41.327947
 C   27.556487   35.585954   40.346749
 C   27.268926   36.469936   39.285252
 C   26.020300   37.068976   39.195149
 C   25.097561   36.763131   40.172818
 O   28.826805   35.157383   40.186035
 C   29.270131   35.783732   39.047483
 N   28.385482   36.556787   38.497362
 C   30.626340   35.510282   38.619041
 C   31.201651   36.099629   37.452990
 C   32.542804   35.756261   37.131068
 C   33.267360   34.863994   37.943424
 C   32.689249   34.314603   39.055386
 C   31.374465   34.637886   39.389569
 C   30.508975   36.996085   36.615703
 C   31.116892   37.527115   35.511556
 C   32.436802   37.196835   35.184084
 C   33.143491   36.327345   35.975326
 O   24.470239   35.593994   42.178401
 O   34.429363   35.976039   35.697493
 H   26.854913   34.601497   42.139065
 H   25.787022   37.745856   38.390181
 H   24.113236   37.211281   40.135391
 H   34.282817   34.628191   37.665945
 H   33.242981   33.629915   39.680097
 H   30.928290   34.198775   40.268871
 H   29.493702   37.251534   36.865590
 H   30.578742   38.213547   34.875079
 H   32.899917   37.628005   34.305775
 H   23.651984   36.072708   41.999156
 H   34.719235   36.426851   34.895197
