32 
1u3r_ligand_aiqm1.xyz
 C   25.394435   35.846251   41.265133
 C   26.652318   35.257689   41.343953
 C   27.526971   35.609284   40.330049
 C   27.216275   36.481582   39.289505
 C   25.953176   37.059119   39.229267
 C   25.048287   36.729551   40.230208
 O   28.812363   35.192704   40.150953
 C   29.225210   35.838899   38.997798
 N   28.329166   36.599255   38.462497
 C   30.604966   35.547917   38.586209
 C   31.206512   36.127828   37.413945
 C   32.550087   35.765191   37.124471
 C   33.260897   34.869938   37.959553
 C   32.656894   34.337117   39.067175
 C   31.325458   34.679361   39.377966
 C   30.536896   37.031894   36.541964
 C   31.185327   37.537692   35.445929
 C   32.518218   37.185436   35.148198
 C   33.181316   36.317636   35.972971
 O   24.506446   35.519924   42.251453
 O   34.473245   35.928743   35.751214
 H   26.908603   34.579134   42.144704
 H   25.680129   37.738825   38.436848
 H   24.055509   37.162055   40.212947
 H   34.281833   34.622019   37.700773
 H   33.192189   33.651930   39.711440
 H   30.857892   34.253112   40.254718
 H   29.520044   37.314321   36.749804
 H   30.675055   38.224768   34.784145
 H   33.010852   37.598459   34.275133
 H   23.682702   35.984296   42.089005
 H   34.789630   36.361168   34.956173
