14 
1ugp_ligand_ani-2x.xyz
 C    8.627726   33.661434   19.687394
 C    8.564144   35.128092   19.267441
 C    9.466439   35.453605   18.079929
 C    8.984637   34.848349   16.771589
 O    9.813367   35.023133   15.715222
 O    7.944551   34.263095   16.627396
 H    8.287763   33.010113   18.877042
 H    9.651658   33.371762   19.950566
 H    7.992857   33.478252   20.560186
 H    8.849897   35.767297   20.111175
 H    7.534088   35.390142   19.000927
 H   10.492156   35.102637   18.266988
 H    9.534322   36.541633   17.936934
 H   10.604695   35.508057   15.987210
