24 
1ugw_ligand_xtb.xyz
 C    0.936043    1.246595    0.166035
 C    1.542795   -0.116130    0.527523
 C    0.981320   -1.177334   -0.420603
 C   -0.553637   -1.159132   -0.345779
 C   -1.071892    0.265341   -0.590043
 C   -2.580242    0.361365   -0.332357
 O    1.424724    2.192446    1.058559
 O    2.943108   -0.108084    0.408486
 O    1.415027   -2.463913   -0.054557
 O   -0.983871   -1.613268    0.908022
 O   -0.458861    1.217037    0.264632
 O   -3.079271    1.632885   -0.641731
 H    1.232413    1.508020   -0.875468
 H    1.238395   -0.352354    1.559096
 H    1.308737   -0.940628   -1.445254
 H   -0.950464   -1.813196   -1.139398
 H   -0.851705    0.538793   -1.635744
 H   -2.760504    0.102818    0.717221
 H   -3.105073   -0.347230   -0.974338
 H    0.760120    2.883953    1.153920
 H    3.269575    0.674158    0.869109
 H    2.368296   -2.412223    0.087696
 H   -0.448170   -2.392840    1.114233
 H   -2.577064    2.272823   -0.123759
