45 
1ugy_ligand_aiqm1.xyz
 C   -1.446879   -0.472240    1.091660
 C   -2.281685   -1.477587    0.307679
 C   -3.162512   -0.760503   -0.702140
 C   -4.016682    0.274640    0.007040
 C   -3.111784    1.219107    0.792023
 C   -3.869322    2.199085    1.657757
 O   -1.480374   -2.447562   -0.329395
 O   -4.035871   -1.684363   -1.339544
 O   -4.928730   -0.350746    0.892683
 O   -2.239127    0.515255    1.691511
 O   -2.981432    3.113680    2.278001
 C    3.947885    1.235049   -0.759912
 C    4.475515   -0.130798   -1.179750
 C    3.335703   -0.927098   -1.772829
 C    2.186217   -1.000065   -0.782069
 C    1.766121    0.410292   -0.365989
 C    0.725140    0.454393    0.734918
 O    4.998936    1.918377   -0.155719
 O    5.474293   -0.020728   -2.176013
 O    3.705445   -2.262967   -2.071068
 O    1.089175   -1.675029   -1.378290
 O    2.902947    1.083635    0.178132
 O   -0.520153    0.076613    0.177264
 H   -0.917270   -0.965495    1.911190
 H   -2.916866   -2.004759    1.020186
 H   -2.532031   -0.266110   -1.448259
 H   -4.563911    0.857502   -0.743717
 H   -2.505390    1.772250    0.063526
 H   -4.462520    1.651860    2.395687
 H   -4.538460    2.790217    1.034228
 H   -0.694852   -2.016743   -0.695442
 H   -3.504196   -2.461951   -1.530635
 H   -5.312482   -1.079726    0.395954
 H   -2.380072    2.593693    2.816057
 H    3.570846    1.793553   -1.633100
 H    4.856312   -0.639892   -0.287922
 H    2.994614   -0.419761   -2.682909
 H    2.532018   -1.550821    0.103616
 H    1.393850    0.951332   -1.247754
 H    0.673121    1.463373    1.150212
 H    1.013144   -0.237853    1.535842
 H    4.636528    2.698444    0.270154
 H    6.208832    0.473890   -1.805904
 H    4.464829   -2.230012   -2.657091
 H    1.451529   -2.463532   -1.796470
