12 
1ui0_ligand_xtb.xyz
 N   23.236765    9.855131   10.521626
 C   22.338271    8.865287   10.164424
 O   21.990026    8.693201    9.024019
 N   21.894445    8.114664   11.222694
 C   22.241291    8.240321   12.570316
 O   21.763402    7.498797   13.394796
 C   23.190188    9.313165   12.820083
 C   23.643558   10.065823   11.805100
 H   23.584708   10.427678    9.765580
 H   21.233928    7.378844   10.996556
 H   23.505130    9.471553   13.836106
 H   24.348588   10.871537   11.949099
