60 
1uml_ligand_dft.xyz
 C    1.739505   -1.525651    0.529010
 N    3.039678   -1.885757    0.309740
 C    3.009227   -3.077251   -0.366301
 N    1.784775   -3.484741   -0.589283
 C    0.980270   -2.511076   -0.043855
 C   -0.490336   -2.535092   -0.149373
 O   -1.187449   -1.566616    0.156116
 N   -0.999643   -3.695990   -0.612119
 C    4.214743   -1.066326    0.610712
 C    5.156877   -1.781860    1.571218
 O    5.765523   -2.858360    0.887711
 C    4.918170   -0.630127   -0.679961
 C    4.061277    0.273154   -1.572646
 N    3.753896    1.545921   -0.953839
 C    4.700690    2.501110   -0.625171
 C    4.115197    3.541646    0.030310
 C    2.716771    3.234692    0.129741
 C    2.524122    1.984549   -0.498779
 C    1.604315    3.883858    0.684885
 C    0.358530    3.290290    0.636001
 C    0.185507    2.035064    0.006779
 C    1.262300    1.392112   -0.595552
 N   -1.049219    1.358315   -0.001322
 C   -2.300495    1.893576    0.154417
 O   -2.529021    3.079403    0.333449
 C   -3.409313    0.850782    0.062448
 C   -4.793993    1.455634    0.299640
 C   -6.243955   -0.396170    1.227846
 C   -5.879262    0.416703    0.151657
 C   -6.512441    0.214123   -1.076557
 C   -7.484141   -0.771017   -1.227906
 C   -7.838668   -1.573448   -0.147020
 C   -7.214714   -1.382608    1.083099
 H    1.469544   -0.615392    1.040705
 H    3.915888   -3.593039   -0.644901
 H   -0.375440   -4.432432   -0.906913
 H   -1.990518   -3.763008   -0.782185
 H    3.836234   -0.175283    1.123467
 H    4.581168   -2.127951    2.440750
 H    5.906253   -1.056021    1.920733
 H    6.248650   -3.394625    1.525548
 H    5.838009   -0.101864   -0.403859
 H    5.225246   -1.514379   -1.246855
 H    4.587310    0.449601   -2.517547
 H    3.119331   -0.222642   -1.822038
 H    5.734880    2.351790   -0.905727
 H    4.613866    4.429229    0.393203
 H    1.720803    4.850845    1.165970
 H   -0.505743    3.778365    1.064123
 H    1.106260    0.452127   -1.114718
 H   -1.002247    0.342516   -0.078799
 H   -3.207773    0.042640    0.775309
 H   -3.365874    0.378858   -0.927434
 H   -4.950826    2.276317   -0.407015
 H   -4.825242    1.902478    1.298751
 H   -5.761705   -0.249627    2.191859
 H   -6.241554    0.841201   -1.923181
 H   -7.968436   -0.908794   -2.190615
 H   -8.599929   -2.339826   -0.260748
 H   -7.488083   -2.000721    1.933825
