37 
1ung_ligand_aiqm1.xyz
 O    0.732566   69.862220    1.467110
 C    1.622136   68.862990    1.199210
 C    1.777184   67.866979    2.159914
 C    2.670770   66.828303    1.937512
 C    3.423158   66.758855    0.758491
 C    3.247498   67.766648   -0.195484
 C    2.360599   68.813846    0.018888
 C    4.364249   65.672300    0.491877
 N    4.512338   65.214900   -0.813995
 C    5.435962   64.210995   -0.839046
 N    5.828225   63.508595   -1.891565
 C    5.925328   64.053681    0.482889
 N    6.870250   63.152686    0.765581
 C    7.277163   62.438582   -0.285800
 C    6.767611   62.608771   -1.583278
 C    5.233319   64.995572    1.319078
 C    5.448332   65.167989    2.796971
 C    4.761043   64.087580    3.634230
 C    5.032821   64.230699    5.130625
 C    4.413969   65.482033    5.746613
 H    0.724619   70.478388    0.731727
 H    1.196048   67.916796    3.070147
 H    2.776801   66.058222    2.687839
 H    3.826820   67.750269   -1.109905
 H    2.247659   69.591081   -0.728746
 H    3.930892   65.486220   -1.585912
 H    8.041374   61.692752   -0.106142
 H    7.139093   61.993571   -2.392895
 H    6.522151   65.138124    3.001060
 H    5.104574   66.161858    3.100005
 H    3.679247   64.114477    3.455168
 H    5.103945   63.106639    3.298526
 H    4.646096   63.349565    5.647565
 H    6.114559   64.235603    5.294109
 H    3.329244   65.483658    5.618742
 H    4.622447   65.536872    6.815420
 H    4.803909   66.391681    5.287473
