37 
1ung_ligand_xtb.xyz
 O    0.802048   69.870196    1.562209
 C    1.664999   68.863744    1.268408
 C    1.856087   67.858740    2.213181
 C    2.723971   66.820030    1.955049
 C    3.428818   66.754380    0.751437
 C    3.222482   67.761705   -0.191423
 C    2.354167   68.804500    0.062184
 C    4.354689   65.667088    0.471924
 N    4.470243   65.170726   -0.815959
 C    5.394125   64.184189   -0.829553
 N    5.790603   63.444665   -1.852816
 C    5.912067   64.056259    0.494977
 N    6.858269   63.162270    0.776141
 C    7.251421   62.426939   -0.249963
 C    6.729756   62.560332   -1.539361
 C    5.236235   65.011167    1.304100
 C    5.498471   65.225697    2.756258
 C    4.869849   64.108109    3.597752
 C    5.076346   64.305042    5.098942
 C    4.250877   65.452441    5.671025
 H    0.761593   70.496085    0.828948
 H    1.308967   67.910885    3.140886
 H    2.840496   66.035158    2.683573
 H    3.767346   67.747012   -1.124359
 H    2.211660   69.582046   -0.677193
 H    3.907224   65.456406   -1.599467
 H    8.018623   61.694573   -0.039413
 H    7.077397   61.937493   -2.351240
 H    6.578523   65.210368    2.918406
 H    5.114551   66.200744    3.057281
 H    3.799412   64.043473    3.384873
 H    5.323708   63.163846    3.291543
 H    4.796913   63.382418    5.613222
 H    6.135428   64.484504    5.295007
 H    3.191301   65.290485    5.482226
 H    4.397475   65.523180    6.746502
 H    4.537861   66.403105    5.228693
