45 
1urg_ligand_aiqm1.xyz
 C   -0.947080   -1.048733    0.189471
 C   -1.915797   -1.492825   -0.899724
 C   -2.664018   -0.306845   -1.456856
 C   -3.377009    0.406813   -0.322605
 C   -2.352765    0.800336    0.747803
 C   -2.981379    1.357284    2.010372
 O    0.051524   -0.237168   -0.368282
 O   -1.169699   -2.165455   -1.899668
 O   -3.560084   -0.812948   -2.435419
 O   -4.029456    1.520878   -0.902161
 O   -1.635917   -0.354306    1.202190
 O   -3.675923    2.553160    1.662532
 C    4.193535   -0.016173   -0.071046
 C    3.602535   -1.345381   -0.548381
 C    2.175280   -1.150279   -1.010222
 C    1.374796   -0.496109    0.108540
 C    2.036548    0.822743    0.514543
 C    1.396317    1.483505    1.718443
 O    4.321585    0.878649   -1.152272
 O    4.418453   -1.794623   -1.615587
 O    1.681426   -2.423746   -1.381323
 O    3.389652    0.558344    0.912596
 O    2.063965    2.683970    2.047520
 H   -0.516644   -1.918891    0.683355
 H   -2.632678   -2.183743   -0.441887
 H   -1.956965    0.389322   -1.918394
 H   -4.111382   -0.280787    0.127887
 H   -1.661903    1.540881    0.325678
 H   -3.672018    0.618909    2.429517
 H   -2.189700    1.558124    2.733200
 H   -1.742125   -2.255706   -2.666051
 H   -4.104091   -0.079972   -2.730574
 H   -4.243289    2.141962   -0.198419
 H   -4.058226    2.929681    2.454637
 H    5.168126   -0.188106    0.397345
 H    3.619587   -2.064396    0.278434
 H    2.171587   -0.473139   -1.870172
 H    1.335025   -1.177788    0.969683
 H    2.021832    1.512837   -0.335645
 H    0.361652    1.743307    1.495141
 H    1.406163    0.782845    2.567144
 H    4.665574    0.353408   -1.882094
 H    3.955065   -2.525733   -2.030539
 H    0.785701   -2.326417   -1.724796
 H    3.002520    2.482114    2.066887
