21 
1uto_ligand_xtb.xyz
 C   45.430220   20.349161   50.443323
 C   46.457373   21.282722   50.442560
 C   46.228277   22.571177   49.992792
 C   44.969553   22.936154   49.545872
 C   43.941034   22.009295   49.546872
 C   44.169802   20.720596   49.996618
 C   45.674174   18.947437   50.959186
 C   45.390348   18.918308   52.455950
 N   45.619113   17.544249   53.015634
 H   47.444261   21.000364   50.780387
 H   47.034126   23.288270   49.988346
 H   44.792028   23.939498   49.192406
 H   42.960214   22.287253   49.194194
 H   43.366001   19.998401   49.985339
 H   46.711005   18.665553   50.767447
 H   45.016551   18.249475   50.438012
 H   44.354931   19.203128   52.647133
 H   46.045538   19.618473   52.975821
 H   45.431404   17.512445   54.025478
 H   45.003850   16.870127   52.541026
 H   46.593696   17.260313   52.848804
