21 
1uto_ligand_dft.xyz
 C   45.434501   20.347198   50.423959
 C   46.467035   21.286289   50.426444
 C   46.233698   22.585673   49.987853
 C   44.965595   22.954621   49.547141
 C   43.931822   22.022028   49.542704
 C   44.165201   20.722678   49.981311
 C   45.675179   18.947992   50.950355
 C   45.389798   18.928723   52.447568
 N   45.616775   17.540576   53.027394
 H   47.463238   21.000309   50.757189
 H   47.043927   23.307450   49.983521
 H   44.784790   23.966803   49.200483
 H   42.944767   22.303783   49.190868
 H   43.356799   19.994819   49.963188
 H   46.713220   18.645744   50.763660
 H   45.022405   18.231678   50.436043
 H   44.352484   19.189187   52.666955
 H   46.049623   19.604056   52.995783
 H   45.429876   17.508420   54.034844
 H   45.008497   16.849756   52.575658
 H   46.584270   17.234618   52.880279
