38 
1uvu_ligand_xtb.xyz
 C  -40.590795  -31.748154   40.719391
 N  -41.634141  -30.900129   40.469725
 N  -40.796561  -33.001606   40.658686
 C  -39.283352  -31.088085   40.972727
 C  -38.404771  -31.617815   41.885582
 C  -37.156621  -31.013875   42.132130
 C  -36.250208  -31.531060   43.078935
 C  -35.038332  -30.933254   43.305917
 C  -34.693977  -29.780948   42.573488
 C  -35.550698  -29.250653   41.651621
 C  -36.804040  -29.846374   41.406435
 C  -37.717596  -29.326905   40.465459
 C  -38.926876  -29.924710   40.257615
 C  -34.105978  -31.452285   44.365146
 C  -34.549438  -30.946391   45.748685
 C  -34.671497  -29.438759   45.738518
 O  -35.695988  -28.827857   45.892438
 O  -33.489145  -28.857820   45.522417
 C  -33.484920  -27.431744   45.435528
 C  -32.124458  -26.983700   44.935481
 H  -42.536580  -31.345174   40.422045
 H  -41.606737  -29.979940   40.874929
 H  -39.961217  -33.566933   40.768914
 H  -38.674757  -32.503970   42.444629
 H  -36.530168  -32.417588   43.631212
 H  -33.733487  -29.318367   42.751400
 H  -35.279252  -28.363912   41.096086
 H  -37.442356  -28.441557   39.909598
 H  -39.616770  -29.528846   39.526716
 H  -33.089372  -31.107921   44.170359
 H  -34.110208  -32.543974   44.373239
 H  -33.815195  -31.238522   46.500701
 H  -35.524215  -31.358622   46.009644
 H  -33.698659  -27.018575   46.427711
 H  -34.287277  -27.119271   44.757612
 H  -31.345871  -27.327090   45.611295
 H  -31.931113  -27.392957   43.947361
 H  -32.095073  -25.899456   44.880726
