38 
1uvu_ligand_aiqm1.xyz
 C  -40.648710  -31.785458   40.726455
 N  -41.661392  -30.928266   40.333935
 N  -40.901608  -33.035798   40.833790
 C  -39.323675  -31.135049   40.927986
 C  -38.440944  -31.614048   41.869438
 C  -37.182269  -30.998787   42.076822
 C  -36.272964  -31.473364   43.057687
 C  -35.049531  -30.875295   43.251291
 C  -34.700034  -29.754254   42.446898
 C  -35.559607  -29.272984   41.492679
 C  -36.823112  -29.879546   41.281190
 C  -37.738065  -29.407301   40.305422
 C  -38.956230  -30.011355   40.138715
 C  -34.098899  -31.370721   44.311924
 C  -34.518837  -30.940584   45.722818
 C  -34.577362  -29.445088   45.899716
 O  -35.490746  -28.833137   46.391851
 O  -33.454055  -28.851894   45.458995
 C  -33.428004  -27.422239   45.620875
 C  -32.117798  -26.943423   45.045441
 H  -42.568456  -31.365868   40.345611
 H  -41.636421  -30.000312   40.722416
 H  -40.053075  -33.560680   41.024988
 H  -38.708453  -32.466485   42.485267
 H  -36.563581  -32.327321   43.664470
 H  -33.740697  -29.275920   42.611650
 H  -35.280297  -28.417313   40.888412
 H  -37.460333  -28.558108   39.691058
 H  -39.649050  -29.655843   39.387077
 H  -33.092784  -31.004101   44.110157
 H  -34.062298  -32.461225   44.287864
 H  -33.801350  -31.329595   46.451979
 H  -35.506832  -31.328405   45.970319
 H  -33.521193  -27.187165   46.680868
 H  -34.284532  -26.994530   45.101463
 H  -31.278589  -27.394183   45.575148
 H  -32.048581  -27.209267   43.990527
 H  -32.047338  -25.859887   45.136896
