36 
1uwf_ligand_xtb.xyz
 C    3.610650   -0.154002   -0.883111
 C    4.459511   -0.119557   -2.147516
 C    1.773056    0.980362    0.430240
 C    2.654311    1.034072   -0.811347
 C   -0.583911   -1.695509    1.292115
 O   -1.199109   -2.026194    2.506308
 C   -1.596793   -1.695704    0.143933
 O   -2.267653   -2.934598    0.157310
 C   -2.590164   -0.540896    0.324028
 O   -3.475341   -0.571475   -0.770783
 C   -1.809543    0.775226    0.427666
 O   -0.889411    0.727405    1.503414
 C   -2.725055    1.966761    0.720386
 O   -3.592136    2.172521   -0.377434
 O    0.915596   -0.149802    0.330926
 C    0.056533   -0.305962    1.416081
 H    3.023701   -1.072590   -0.854696
 H    4.261950   -0.144393   -0.006340
 H    5.053628    0.791304   -2.184606
 H    5.134921   -0.971035   -2.176827
 H    3.828145   -0.152156   -3.032439
 H    2.387074    0.887573    1.338021
 H    1.170232    1.893855    0.517078
 H    3.219120    1.968325   -0.795944
 H    2.011668    1.034706   -1.692992
 H    0.217131   -2.413648    1.058373
 H   -1.790563   -2.767904    2.311869
 H   -1.062917   -1.555526   -0.807203
 H   -3.027075   -2.841842   -0.431469
 H   -3.141633   -0.695731    1.267246
 H   -3.818518    0.324304   -0.900765
 H   -1.283637    0.944635   -0.524796
 H   -2.095055    2.846489    0.896305
 H   -3.292516    1.756847    1.635946
 H   -4.135933    2.948188   -0.205360
 H    0.599637   -0.244149    2.372684
