61 
1uxb_ligand_ani-2x.xyz
 C    0.324460   -1.780445    1.527865
 C    0.170963   -1.397834    0.036604
 C   -0.671215   -2.378009   -0.759349
 C   -2.167029   -2.265742   -0.488370
 C   -2.613638   -0.788494   -0.538422
 C   -1.704450    0.088087    0.334584
 C   -1.981152    1.615016    0.181673
 C   -2.651015    2.214742    1.436029
 C   -2.879605    3.715494    1.300933
 C   -5.055980   -0.842295   -0.890317
 C   -6.392395   -0.429821   -0.315124
 N   -3.985616   -0.621975   -0.089272
 O   -0.289264   -2.926002    1.855924
 O    0.932460   -1.118768    2.331309
 O   -2.809393   -3.042241   -1.468694
 O   -0.357838   -0.110184   -0.046817
 O   -0.799044    2.352131   -0.007889
 O   -3.892918    1.580119    1.729021
 O   -3.945412    3.869064    0.366931
 O   -4.947635   -1.362697   -2.001017
 C    3.693898    1.593010   -1.108230
 C    2.574241    0.593369   -1.390311
 C    2.306600   -0.273525   -0.163037
 C    3.620327   -0.880622    0.343626
 C    4.660729    0.217585    0.543755
 C    6.024947   -0.305940    0.965775
 O    3.970127    2.260387   -2.304598
 O    1.397298    1.288924   -1.752945
 O    1.462752   -1.366504   -0.516914
 O    4.135077   -1.793311   -0.597238
 O    4.864229    0.945210   -0.666778
 O    6.923402    0.759347    1.172700
 H   -0.341970   -3.402225   -0.574751
 H   -0.510279   -2.165625   -1.821928
 H   -2.391647   -2.657411    0.516491
 H   -2.526400   -0.464120   -1.583625
 H   -1.822717   -0.210852    1.386636
 H   -2.667634    1.750985   -0.675306
 H   -1.983414    2.033665    2.288697
 H   -1.966845    4.211810    0.954212
 H   -3.165528    4.116676    2.284470
 H   -7.135194   -0.446455   -1.113322
 H   -6.347464    0.572220    0.125369
 H   -6.697277   -1.127632    0.471963
 H   -4.115779   -0.103748    0.773193
 H   -0.131678   -3.050128    2.807010
 H   -3.618282   -2.585362   -1.770990
 H   -0.183712    1.828296   -0.551587
 H   -4.564281    2.132320    1.294464
 H   -4.258690    4.778995    0.404947
 H    3.370558    2.311717   -0.327221
 H    2.913187   -0.064555   -2.201378
 H    1.851367    0.337299    0.627379
 H    3.416998   -1.369574    1.311521
 H    4.306730    0.923182    1.317233
 H    5.935944   -0.836131    1.920181
 H    6.388735   -1.016843    0.211025
 H    4.884141    2.565573   -2.242517
 H    1.633213    1.850975   -2.504969
 H    3.395489   -2.368772   -0.839247
 H    6.940531    1.261018    0.346476
