52 
1uy6_ligand_xtb.xyz
 C    7.820938    9.686397   22.941201
 O    7.711422   10.891785   23.654601
 C    6.480779   11.461947   23.780086
 C    5.315964   10.947820   23.230212
 C    6.450923   12.649854   24.535711
 O    7.658446   13.025349   25.052391
 C    7.925574   14.388971   25.290888
 C    5.224367   13.302130   24.728983
 O    5.220571   14.432517   25.504451
 C    4.008891   15.123495   25.682433
 C    4.072809   12.777759   24.151259
 C    4.109814   11.606925   23.412596
 C    2.830124   11.052895   22.844830
 C    1.765496   10.909462   23.878586
 N    0.559888   11.383510   23.719810
 C   -0.118885   11.050904   24.864329
 C   -1.429385   11.253867   25.324429
 N   -2.354370   11.943646   24.625114
 C    0.741593   10.351369   25.725703
 N    0.407768    9.880110   26.928277
 C   -0.848418   10.132942   27.238674
 N   -1.762394   10.771802   26.524151
 N    1.942270   10.272355   25.083896
 C    3.111431    9.640859   25.640083
 C    3.434437    8.304818   24.970769
 C    4.731273    7.719818   25.523105
 C    5.106958    6.419558   24.823038
 H    7.230464    8.886948   23.401905
 H    7.518420    9.804703   21.894974
 H    8.875642    9.418813   22.980294
 H    5.339541   10.038604   22.651830
 H    7.619502   15.012201   24.446644
 H    7.434655   14.748057   26.198020
 H    9.007050   14.451117   25.412826
 H    3.599770   15.475547   24.730139
 H    3.262822   14.507517   26.194588
 H    4.254597   15.981273   26.307045
 H    3.121544   13.265835   24.286715
 H    3.018039   10.085412   22.372381
 H    2.431187   11.724569   22.080855
 H   -2.153893   12.179614   23.670183
 H   -3.301572   11.941932   24.959170
 H   -1.180817    9.769449   28.202115
 H    2.893200    9.480707   26.699168
 H    3.965375   10.318302   25.547584
 H    3.536707    8.450758   23.894081
 H    2.610244    7.608249   25.137734
 H    4.618108    7.537673   26.593338
 H    5.534091    8.450522   25.396306
 H    4.326425    5.674455   24.958660
 H    5.240279    6.581850   23.755041
 H    6.034539    6.021829   25.227496
