52 
1uy6_ligand_ani-2x.xyz
 C    8.239110   10.756563   22.428658
 O    8.029956   11.739163   23.419024
 C    6.744543   12.029870   23.749419
 C    5.619900   11.436731   23.174054
 C    6.594624   13.007267   24.741154
 O    7.690277   13.521011   25.375438
 C    8.223124   14.668581   24.733323
 C    5.310354   13.444611   25.081412
 O    5.267954   14.466356   25.974931
 C    3.997498   14.959946   26.336522
 C    4.184911   12.842394   24.513116
 C    4.339215   11.825793   23.572421
 C    3.120552   11.173410   22.928934
 C    1.949066   10.960416   23.842478
 N    0.760972   11.472796   23.650865
 C    0.015779   10.999770   24.712948
 C   -1.327481   11.174415   25.094886
 N   -2.156425   11.959133   24.376513
 C    0.780792   10.181522   25.533632
 N    0.365646    9.554519   26.638594
 C   -0.916879    9.805117   26.888810
 N   -1.780033   10.562342   26.197308
 N    2.031211   10.164995   24.966915
 C    3.145080    9.390480   25.491646
 C    3.021770    7.901576   25.178471
 C    4.176743    7.079557   25.747434
 C    4.034401    5.589701   25.444260
 H    7.820763    9.787941   22.731761
 H    7.797594   11.056257   21.469346
 H    9.320210   10.664611   22.316874
 H    5.737933   10.674998   22.411861
 H    8.548881   14.427497   23.713564
 H    7.481337   15.476603   24.702320
 H    9.084345   14.986845   25.325371
 H    3.459562   15.351703   25.463497
 H    3.388257   14.181917   26.815074
 H    4.176442   15.768456   27.046642
 H    3.187865   13.168126   24.792192
 H    3.418062   10.207406   22.500110
 H    2.751878   11.787417   22.098698
 H   -1.833115   12.333560   23.498519
 H   -3.135299   11.991475   24.611190
 H   -1.327382    9.329711   27.776970
 H    3.153560    9.539172   26.576659
 H    4.072092    9.808262   25.094950
 H    2.976751    7.760120   24.090037
 H    2.071088    7.540473   25.590337
 H    4.233965    7.227251   26.835221
 H    5.126233    7.448145   25.333752
 H    3.108597    5.188812   25.873131
 H    4.001486    5.410295   24.363131
 H    4.870431    5.013710   25.854326
