43 
1uy9_ligand_xtb.xyz
 C    4.864997    7.670310   23.844850
 C    3.451961    7.555980   24.406347
 C    3.307507    8.212385   25.779535
 C    3.273400    9.742375   25.718675
 N    2.083211   10.207779   25.054569
 C    0.824353   10.091878   25.568135
 N    0.442157    9.580739   26.740198
 C   -0.863060    9.640471   26.916378
 N   -1.785339   10.124746   26.098782
 C   -0.040943   10.636764   24.605573
 C   -1.408707   10.632168   24.922600
 N   -2.357365   11.090569   24.082399
 N    0.692210   11.072985   23.531405
 C    1.933955   10.801652   23.825728
 C    3.075090   11.125269   22.924712
 C    4.058210   12.073975   23.563834
 C    3.570700   13.161337   24.297263
 C    4.490136   14.006200   24.864322
 C    5.423614   11.881405   23.422125
 O    4.276295   15.125499   25.622148
 C    6.355861   12.743398   23.997191
 C    5.864131   13.801397   24.719380
 O    6.543332   14.787555   25.384610
 C    5.555836   15.623708   25.948135
 H    5.175139    8.709081   23.759973
 H    5.571681    7.159851   24.495610
 H    4.919587    7.215308   22.858334
 H    3.195644    6.498335   24.494934
 H    2.736795    8.005261   23.712961
 H    4.138273    7.909336   26.418826
 H    2.380136    7.881428   26.250271
 H    4.145295   10.142997   25.200363
 H    3.257828   10.136386   26.739540
 H   -1.233033    9.242345   27.852107
 H   -3.303977   11.148746   24.411916
 H   -2.073380   11.573080   23.249600
 H    2.645169   11.585788   22.031774
 H    3.585149   10.208654   22.619792
 H    2.512219   13.328266   24.408134
 H    5.784707   11.043653   22.843774
 H    7.415183   12.588421   23.882321
 H    5.674155   15.647969   27.043291
 H    5.666288   16.645150   25.549589
