52 
1uym_ligand_xtb.xyz
 C    8.314618   10.069629   22.504203
 O    8.108792   11.190663   23.325854
 C    6.832690   11.618683   23.534604
 C    5.702035   11.014109   23.005561
 C    6.717277   12.756764   24.356130
 O    7.903222   13.226452   24.845173
 C    8.041651   14.595379   25.152633
 C    5.441819   13.270600   24.630564
 O    5.357263   14.353183   25.467053
 C    4.090605   14.906035   25.727223
 C    4.324961   12.665025   24.064245
 C    4.445604   11.541617   23.264448
 C    3.204755   10.899329   22.695155
 C    2.119795   10.802091   23.710007
 N    0.959712   11.387608   23.591987
 C    0.273433   11.069272   24.736953
 C   -1.005994   11.368984   25.229647
 N   -1.875386   12.168730   24.576992
 C    1.081462   10.260747   25.554260
 N    0.724507    9.771496   26.742823
 C   -0.499088   10.122328   27.086422
 N   -1.362697   10.869177   26.415288
 N    2.259424   10.107170   24.886070
 C    3.374912    9.322770   25.345637
 C    3.314513    7.892197   24.804056
 C    4.508644    7.051869   25.253781
 C    5.815880    7.472066   24.590847
 H    7.852316    9.169246   22.922657
 H    7.935944   10.235690   21.489792
 H    9.393931    9.931354   22.465164
 H    5.789310   10.139545   22.381394
 H    7.637874   15.228651   24.358436
 H    7.556883   14.852167   26.097032
 H    9.115637   14.761963   25.237119
 H    3.610232   15.266653   24.812180
 H    3.430835   14.189686   26.227090
 H    4.274387   15.748414   26.392762
 H    3.338036   13.054307   24.252637
 H    3.446084    9.906377   22.308790
 H    2.816136   11.501184   21.870239
 H   -1.671393   12.420196   23.626676
 H   -2.814524   12.233987   24.927279
 H   -0.848340    9.750150   28.040560
 H    3.319658    9.301019   26.437044
 H    4.297605    9.818970   25.038220
 H    3.276636    7.915210   23.712253
 H    2.390674    7.431539   25.160575
 H    4.309363    6.006743   25.007302
 H    4.609424    7.122747   26.338309
 H    5.723385    7.420194   23.507362
 H    6.090694    8.486454   24.869418
 H    6.621505    6.808081   24.895696
