19 
1v0n_ligand_ani-2x.xyz
 N  -65.050426   20.470580   54.467938
 C  -65.903561   19.940495   55.523234
 C  -65.052627   19.601895   56.734929
 O  -65.888195   19.045078   57.728609
 C  -63.956052   18.612098   56.354416
 O  -63.188285   18.420222   57.536527
 C  -63.134282   19.141830   55.183772
 C  -64.059763   19.495825   54.021874
 H  -65.615584   20.778982   53.684130
 H  -66.640926   20.698591   55.804710
 H  -66.457636   19.026442   55.236030
 H  -64.568575   20.522183   57.100796
 H  -65.288818   18.740496   58.425117
 H  -64.446918   17.666071   56.062738
 H  -62.639582   17.636113   57.419061
 H  -62.587851   20.034789   55.510725
 H  -62.392025   18.397819   54.867529
 H  -64.522911   18.564363   53.641050
 H  -63.481984   19.934129   53.201816
