17 
1v2j_ligand_ani-2x.xyz
 C   -3.184486    9.035653   19.617126
 C   -1.909617    8.785407   19.107330
 C   -1.314142    7.539931   19.279254
 C   -1.989157    6.535631   19.968146
 C   -3.266112    6.776693   20.469999
 C   -3.864695    8.017111   20.287758
 C   -3.848113   10.365374   19.441712
 N   -5.122884   10.417951   19.396225
 N   -2.972019   11.439438   19.312337
 H   -1.390878    9.565330   18.555043
 H   -0.318275    7.357177   18.882542
 H   -1.523851    5.563743   20.109282
 H   -3.800314    5.993138   21.000900
 H   -4.865654    8.219214   20.657501
 H   -5.449790   11.376341   19.261824
 H   -3.398309   12.351871   19.402584
 H   -2.105703   11.361297   19.828637
