17 
1v2j_ligand_aiqm1.xyz
 C   -3.189335    9.034113   19.629797
 C   -1.898721    8.804538   19.149614
 C   -1.302463    7.558364   19.316916
 C   -1.989032    6.538025   19.970254
 C   -3.281055    6.762513   20.442270
 C   -3.881063    8.002367   20.269435
 C   -3.848617   10.360885   19.461662
 N   -5.124778   10.437568   19.491731
 N   -2.976778   11.420279   19.240238
 H   -1.376492    9.587169   18.614367
 H   -0.306243    7.382568   18.932172
 H   -1.523054    5.570171   20.101699
 H   -3.821159    5.965992   20.937311
 H   -4.888542    8.189984   20.611785
 H   -5.437732   11.400847   19.381389
 H   -3.396460   12.329653   19.329754
 H   -2.082477   11.356265   19.697806
