17 
1v2j_ligand_xtb.xyz
 C   -3.175453    9.042284   19.631368
 C   -1.900070    8.792285   19.134072
 C   -1.319707    7.547409   19.300710
 C   -2.002276    6.542986   19.965582
 C   -3.277430    6.782112   20.452414
 C   -3.862312    8.022466   20.284002
 C   -3.831649   10.356961   19.471219
 N   -5.097100   10.394755   19.409392
 N   -2.996037   11.441627   19.356043
 H   -1.367008    9.558864   18.589824
 H   -0.331059    7.360012   18.907000
 H   -1.543538    5.573924   20.097372
 H   -3.815656    5.997442   20.963613
 H   -4.856853    8.227550   20.646602
 H   -5.487261   11.327454   19.294887
 H   -3.411780   12.358811   19.388040
 H   -2.048810   11.374357   19.686059
