17 
1v2l_ligand_ani-2x.xyz
 C   53.166147   67.294925  -28.876255
 C   52.725378   66.910470  -30.144175
 C   52.522413   67.863732  -31.134290
 C   52.740387   69.212412  -30.862145
 C   53.158896   69.604736  -29.593373
 C   53.372955   68.648486  -28.605957
 C   53.385198   66.247670  -27.829918
 N   54.321408   66.585453  -26.856663
 N   52.704002   65.169296  -27.883766
 H   52.545326   65.856118  -30.332234
 H   52.187335   67.553702  -32.120593
 H   52.578183   69.956725  -31.637184
 H   53.327965   70.656271  -29.373780
 H   53.683346   68.954338  -27.609730
 H   54.628460   65.817677  -26.274699
 H   55.087483   67.166613  -27.170630
 H   52.937019   64.544575  -27.109907
