17 
1v2l_ligand_aiqm1.xyz
 C   53.171055   67.287074  -28.886223
 C   52.696147   66.909237  -30.144725
 C   52.488231   67.866700  -31.128161
 C   52.743517   69.210741  -30.861919
 C   53.200438   69.593744  -29.603434
 C   53.417196   68.634921  -28.618510
 C   53.396025   66.242031  -27.846608
 N   54.261087   66.614035  -26.824596
 N   52.776209   65.126685  -27.931402
 H   52.486819   65.864885  -30.326124
 H   52.119419   67.569632  -32.101278
 H   52.577730   69.957252  -31.627691
 H   53.381985   70.638444  -29.386572
 H   53.742640   68.936637  -27.631209
 H   54.568628   65.853987  -26.242494
 H   55.009833   67.233837  -27.086190
 H   53.034942   64.503361  -27.168163
