17 
1v2m_ligand_xtb.xyz
 C   45.856947   19.450511   52.755764
 C   45.402866   19.168341   51.470518
 C   45.086710   20.193601   50.599999
 C   45.213895   21.512868   51.004280
 C   45.648961   21.800930   52.286690
 C   45.970939   20.777197   53.159904
 C   46.187734   18.328406   53.659103
 N   47.113183   18.592168   54.639889
 N   45.578078   17.228406   53.501200
 H   45.302576   18.134830   51.179935
 H   44.738969   19.965961   49.603014
 H   44.967858   22.315402   50.324371
 H   45.735445   22.828295   52.610078
 H   46.283659   21.015684   54.166556
 H   47.460653   17.814276   55.177701
 H   47.740278   19.370645   54.533121
 H   45.847247   16.497881   54.156277
