17 
1v2m_ligand_dft.xyz
 C   -0.213925   -0.035399   -0.021684
 C    0.520487   -1.211127    0.152830
 C    1.908630   -1.174040    0.176498
 C    2.580700    0.036806    0.019440
 C    1.856269    1.209444   -0.168609
 C    0.464869    1.174367   -0.188868
 C   -1.705556   -0.110979   -0.035672
 N   -2.353623    1.078134    0.275546
 N   -2.266890   -1.212694   -0.364226
 H   -0.019250   -2.145290    0.264787
 H    2.469717   -2.093023    0.317919
 H    3.666277    0.064303    0.037678
 H    2.373394    2.154038   -0.308767
 H   -0.091372    2.089269   -0.371506
 H   -3.348258    1.002807    0.438774
 H   -1.890787    1.675956    0.946010
 H   -3.284967   -1.140569   -0.307740
