17 
1v2v_ligand_xtb.xyz
 C   -3.187274    8.958955   19.596507
 C   -1.910071    8.700864   19.108077
 C   -1.338966    7.452214   19.278298
 C   -2.032691    6.451976   19.937941
 C   -3.309648    6.699178   20.415872
 C   -3.885294    7.943366   20.243858
 C   -3.833755   10.277927   19.432277
 N   -5.098415   10.323978   19.360892
 N   -2.990266   11.357253   19.324314
 H   -1.368238    9.464193   18.567928
 H   -0.348791    7.258539   18.891529
 H   -1.581141    5.479932   20.072533
 H   -3.856581    5.917846   20.922925
 H   -4.881038    8.154700   20.599499
 H   -5.481643   11.259262   19.244082
 H   -3.400089   12.277178   19.353481
 H   -2.045701   11.283540   19.660487
