14 
1vfn_ligand_dft.xyz
 N   26.080746   89.933081   73.250940
 C   25.010592   89.103267   73.017883
 N   23.768095   89.447455   73.078849
 C   23.578281   90.765408   73.409176
 C   24.612472   91.656266   73.656826
 C   25.997157   91.295182   73.594146
 O   26.983765   91.984451   73.789115
 N   24.007953   92.850707   73.947764
 C   22.668667   92.624486   73.862523
 N   22.366231   91.386896   73.541856
 H   27.020684   89.565307   73.177791
 H   25.272348   88.079711   72.763899
 H   24.479077   93.712386   74.176290
 H   21.947931   93.409396   74.046942
