39 
1vyw_ligand_aiqm1.xyz
 C  -14.829457  204.591128  112.080214
 C  -14.916322  205.503830  110.896154
 C  -13.884304  204.396721  110.914145
 C  -12.454797  204.723497  111.061330
 C  -11.866153  205.767990  111.825368
 C  -10.515343  205.617032  111.608235
 N  -10.357531  204.563816  110.778772
 N  -11.537990  203.992553  110.428302
 N   -9.406261  206.321024  112.059982
 C   -9.445257  207.367140  112.945223
 C   -8.080016  207.969548  113.265551
 C   -6.941519  206.984998  113.254140
 C   -6.074092  206.904542  112.190720
 C   -5.029202  205.940070  112.155296
 C   -4.888257  205.038343  113.241562
 C   -5.789323  205.137324  114.333184
 C   -6.783395  206.080130  114.341522
 C   -3.853408  204.070164  113.204956
 C   -4.128611  205.850788  111.062929
 C   -3.135672  204.905347  111.052757
 C   -2.996518  204.003342  112.136057
 O  -10.473512  207.812363  113.410246
 H  -15.609489  203.856825  112.221302
 H  -14.401185  204.992989  112.988231
 H  -14.546113  206.512731  111.016802
 H  -15.755916  205.395661  110.224633
 H  -14.078119  203.546420  110.272731
 H  -12.341747  206.510927  112.438090
 H   -9.496570  204.180316  110.437014
 H   -8.496590  205.985426  111.792299
 H   -8.181108  208.447477  114.237295
 H   -7.909840  208.757210  112.525038
 H   -6.173153  207.592648  111.355347
 H   -5.683255  204.453115  115.166956
 H   -7.467394  206.144893  115.178222
 H   -3.748233  203.383270  114.036483
 H   -4.234904  206.544487  110.236904
 H   -2.452354  204.845830  110.216267
 H   -2.209090  203.262083  112.116741
