30 
1vyz_ligand_xtb.xyz
 C   13.380837   45.959134   22.295399
 C   14.633794   45.287900   21.939241
 C   12.711600   45.950545   23.538272
 N   12.721229   46.687290   21.409803
 C   15.729308   45.155608   22.963560
 C   14.961686   43.947517   22.541363
 C   11.594370   46.729340   23.337371
 N   11.637707   47.151194   22.048962
 N   10.555795   47.103562   24.173243
 C   10.390477   46.669095   25.463847
 C    9.183637   47.226943   26.138052
 O   11.144786   45.890189   26.002818
 C    8.548903   46.430584   27.087560
 C    8.698944   48.507939   25.888351
 C    7.429779   46.893170   27.753326
 C    7.584719   48.971274   26.565091
 C    6.943430   48.163320   27.489565
 H   14.922907   45.463563   20.911275
 H   12.987440   45.456936   24.444455
 H   15.545763   45.558858   23.947426
 H   16.749904   45.263603   22.629207
 H   15.449689   43.217145   21.914104
 H   14.252944   43.524497   23.236362
 H   10.981744   47.737123   21.558892
 H    9.844581   47.696368   23.770792
 H    8.950517   45.448699   27.287011
 H    9.205975   49.165006   25.194897
 H    6.938514   46.266012   28.482014
 H    7.217792   49.968805   26.372925
 H    6.071231   48.528784   28.010817
