30 
1vyz_ligand_ani-2x.xyz
 C   13.427539   45.992954   22.320972
 C   14.661714   45.281474   21.940545
 C   12.707712   45.944038   23.544030
 N   12.853766   46.813843   21.453847
 C   15.730684   45.007315   22.968758
 C   14.914586   43.877505   22.431133
 C   11.642555   46.797429   23.355945
 N   11.766896   47.289253   22.097843
 N   10.579960   47.195891   24.175094
 C   10.409240   46.762263   25.471872
 C    9.174427   47.271570   26.152110
 O   11.186812   46.006603   26.026699
 C    8.665080   46.516426   27.208315
 C    8.547419   48.465893   25.792161
 C    7.516433   46.927149   27.873488
 C    7.403882   48.882366   26.465431
 C    6.881616   48.109249   27.499781
 H   14.990080   45.523133   20.932951
 H   12.901980   45.389075   24.448623
 H   15.528004   45.331479   23.986447
 H   16.766440   45.099930   22.660074
 H   15.377397   43.177161   21.744077
 H   14.165119   43.442976   23.087707
 H   11.204938   47.984089   21.631780
 H    9.793405   47.650597   23.734362
 H    9.188943   45.608081   27.494103
 H    8.965856   49.102366   25.015211
 H    7.117668   46.327599   28.687750
 H    6.915802   49.809535   26.174669
 H    5.984046   48.432760   28.020224
