30 
1vyz_ligand_aiqm1.xyz
 C   13.400953   45.980233   22.304568
 C   14.653100   45.295342   21.937641
 C   12.713447   45.947190   23.548360
 N   12.775767   46.746079   21.411347
 C   15.742818   45.105757   22.970906
 C   14.956983   43.922241   22.497594
 C   11.616700   46.754014   23.343979
 N   11.684690   47.208023   22.074754
 N   10.570882   47.140524   24.171915
 C   10.365498   46.666267   25.447183
 C    9.166343   47.230472   26.134524
 O   11.088669   45.838048   25.966609
 C    8.586974   46.456597   27.140447
 C    8.630359   48.483816   25.831435
 C    7.463702   46.914284   27.816555
 C    7.511993   48.947314   26.517132
 C    6.921245   48.159309   27.501843
 H   14.978223   45.484993   20.922670
 H   12.962711   45.419653   24.450516
 H   15.535623   45.475255   23.965936
 H   16.767417   45.206915   22.643179
 H   15.442103   43.211060   21.844641
 H   14.227258   43.504725   23.177691
 H   11.042577   47.817941   21.605587
 H    9.848844   47.720803   23.784057
 H    9.039424   45.504149   27.378535
 H    9.103100   49.127348   25.096905
 H    7.016208   46.307728   28.592837
 H    7.107695   49.923945   26.286740
 H    6.048694   48.519975   28.029913
