37 
1w1v_ligand_aiqm1.xyz
 O   -0.118597   -1.222678    1.000708
 C    0.663226   -0.333173    0.690700
 N    1.894487   -0.562691    0.203855
 C    2.398476   -1.904745   -0.096145
 C    3.882475   -1.649993   -0.383129
 C    3.914479   -0.213503   -0.910851
 C    2.887539    0.483724   -0.028992
 C    2.249624    1.728228   -0.623269
 O    2.820753    2.452779   -1.414476
 N    0.992324    1.949277   -0.159850
 C    0.332319    1.150989    0.870606
 C   -1.163640    1.465578    0.930979
 C   -1.951554    1.445597   -0.383400
 C   -2.164605    0.067351   -1.024387
 N   -2.717205   -0.940258   -0.139020
 C   -3.971299   -0.764961    0.415052
 N   -4.923255   -0.013547   -0.007121
 N   -4.162829   -1.517403    1.572052
 H    1.870672   -2.318060   -0.958406
 H    2.222969   -2.567545    0.749777
 H    4.290246   -2.370028   -1.089314
 H    4.458331   -1.719775    0.541737
 H    4.893340    0.256106   -0.843099
 H    3.587888   -0.174275   -1.951424
 H    3.350484    0.791542    0.918885
 H    0.569230    2.817223   -0.447204
 H    0.740529    1.414412    1.857264
 H   -1.251682    2.467270    1.362490
 H   -1.624419    0.780221    1.640154
 H   -2.931344    1.874467   -0.165739
 H   -1.489220    2.097325   -1.129378
 H   -1.221533   -0.326314   -1.407954
 H   -2.820805    0.180591   -1.890075
 H   -2.025370   -1.341744    0.479728
 H   -4.632254    0.515549   -0.823104
 H   -3.705323   -2.415315    1.559016
 H   -5.144659   -1.582222    1.792833
