35 
1w1y_ligand_xtb.xyz
 N   -0.145393   -0.279416   -0.540306
 C   -0.123223    0.440023    0.714752
 C   -1.460695    1.175861    0.911636
 O   -1.546942    2.295713    1.371933
 C    1.042048    1.435123    0.733461
 C    2.359079    0.721476    0.634357
 C    3.033854    0.630586   -0.575302
 C    4.223727   -0.068790   -0.676426
 C    4.092195   -0.607014    1.660001
 C    2.907116    0.092661    1.747775
 C    4.759653   -0.695310    0.441044
 O    5.923537   -1.395228    0.393381
 N   -2.507648    0.436346    0.529041
 C   -2.386948   -0.896130   -0.029945
 C   -1.205698   -0.964171   -0.998719
 O   -1.225423   -1.563736   -2.050423
 C   -3.747402   -1.151582   -0.676135
 C   -4.699127   -0.317676    0.181507
 C   -3.875668    0.924697    0.509400
 H    0.706467   -0.288647   -1.084744
 H   -0.008489   -0.272394    1.549498
 H    0.916374    2.131439   -0.097363
 H    0.974589    2.005557    1.660636
 H    2.639683    1.126000   -1.452054
 H    4.738835   -0.127200   -1.626325
 H    4.522261   -1.091977    2.521584
 H    2.399363    0.159988    2.698878
 H    6.283566   -1.375552   -0.501538
 H   -2.190880   -1.621840    0.776621
 H   -4.000966   -2.208475   -0.691157
 H   -3.727912   -0.788816   -1.704451
 H   -4.946084   -0.856989    1.096837
 H   -5.622248   -0.072588   -0.337953
 H   -4.121951    1.374563    1.473074
 H   -3.979352    1.693600   -0.263873
