31 
1w2g_ligand_xtb.xyz
 O   -1.689317    2.965535    0.638716
 C   -2.150553    1.722879    1.089590
 C   -2.429894    0.778006   -0.086283
 O   -1.253119    0.683874   -0.888445
 C   -2.794987   -0.649336    0.347589
 O   -3.770533   -1.128536   -0.538275
 C   -1.456554   -1.385201    0.232773
 C   -0.760049   -0.629299   -0.907508
 N    0.687589   -0.622398   -0.770623
 C    1.400444   -1.565509   -1.486978
 O    0.871174   -2.394029   -2.190606
 N    2.758320   -1.491821   -1.316560
 C    3.485490   -0.614689   -0.514057
 O    4.691845   -0.684989   -0.468267
 C    2.646880    0.330234    0.214766
 C    3.328274    1.315789    1.106784
 C    1.313354    0.276013    0.051030
 H   -1.109431    2.805795   -0.118071
 H   -1.409386    1.258544    1.761702
 H   -3.066808    1.905455    1.655002
 H   -3.227151    1.191952   -0.713104
 H   -3.175224   -0.660319    1.379360
 H   -3.959133   -2.054281   -0.347012
 H   -0.883321   -1.278227    1.154778
 H   -1.571554   -2.441160   -0.000202
 H   -0.972907   -1.100257   -1.878332
 H    3.299391   -2.171011   -1.841534
 H    3.905832    0.789560    1.865083
 H    4.030598    1.911224    0.526053
 H    2.608873    1.972096    1.587789
 H    0.651859    0.964108    0.555940
