57 
1w2k_ligand_aiqm1.xyz
 C   -1.082250   -3.867392    4.151785
 N   -2.272041   -4.465401    4.538169
 N    0.025393   -4.293072    4.634040
 C   -1.207226   -2.806600    3.121365
 C   -2.204169   -2.844757    2.143539
 C   -2.238715   -1.903211    1.125098
 C   -1.278525   -0.881006    1.062447
 N   -1.247256   -0.039027   -0.049935
 C   -0.437246    1.171016   -0.062446
 C    1.067027    0.870645   -0.197572
 N    1.359895   -0.326039   -0.744366
 C    2.723581   -0.850740   -0.713519
 C    3.035053   -1.562444    0.586199
 C    3.456584   -0.833681    1.704738
 C    3.708106   -1.480418    2.914949
 C    3.538786   -2.859923    3.023645
 C    3.118105   -3.590979    1.912703
 C    2.871769   -2.943071    0.704701
 O    1.891933    1.694290    0.161441
 C   -0.871097    2.079031   -1.187621
 C   -1.116545    1.567780   -2.465909
 C   -1.499851    2.396232   -3.507421
 O   -1.771718    1.844805   -4.730747
 C   -0.826775    2.195489   -5.740691
 C   -1.644568    3.780225   -3.289074
 O   -2.033702    4.518327   -4.361027
 C   -2.141029    5.917629   -4.173757
 C   -1.000266    3.447517   -0.980342
 C   -1.384675    4.298011   -2.021678
 C   -0.310151   -0.805744    2.075203
 C   -0.277389   -1.768625    3.077059
 H   -2.160846   -5.078386    5.329970
 H   -3.073797   -3.859446    4.591392
 H    0.803418   -3.827679    4.172199
 H   -2.931488   -3.646616    2.156517
 H   -3.000534   -1.971305    0.356105
 H   -2.137141    0.075323   -0.505657
 H   -0.524769    1.724611    0.879417
 H    0.585545   -0.968647   -0.818413
 H    2.843126   -1.538686   -1.552749
 H    3.389831   -0.004015   -0.858405
 H    3.583398    0.239013    1.621200
 H    4.040541   -0.902651    3.767866
 H    3.736948   -3.360135    3.963122
 H    2.976261   -4.661688    1.986567
 H    2.548278   -3.515448   -0.157605
 H   -1.005911    0.509453   -2.674531
 H   -0.821068    3.272271   -5.910792
 H    0.173518    1.863894   -5.451829
 H   -1.142933    1.678634   -6.643135
 H   -2.454917    6.322527   -5.130573
 H   -2.887732    6.160333   -3.414348
 H   -1.179902    6.352529   -3.888874
 H   -0.784847    3.865913   -0.005124
 H   -1.471069    5.357780   -1.829249
 H    0.439346   -0.025793    2.068445
 H    0.505402   -1.720856    3.826706
