57 
1w2k_ligand_xtb.xyz
 C   -0.664269   -3.801831    4.234487
 N   -1.720669   -4.664984    4.383453
 N    0.357893   -3.978980    4.972374
 C   -0.811696   -2.785207    3.168405
 C   -1.606202   -3.019126    2.046868
 C   -1.726706   -2.068783    1.058220
 C   -1.055880   -0.844804    1.151067
 N   -1.148332    0.046136    0.102294
 C   -0.614159    1.386910    0.166163
 C    0.926811    1.348523    0.300607
 N    1.477939    0.313480   -0.356984
 C    2.839221   -0.127213   -0.129580
 C    2.840373   -1.320947    0.793751
 C    3.352601   -1.234083    2.079594
 C    3.306607   -2.328242    2.926790
 C    2.734763   -3.515125    2.502131
 C    2.204745   -3.603109    1.226090
 C    2.261629   -2.514159    0.376687
 O    1.545393    2.202930    0.895475
 C   -0.917142    2.160249   -1.089986
 C   -0.929456    1.539017   -2.329337
 C   -1.175037    2.235987   -3.507845
 O   -1.168515    1.445894   -4.619072
 C   -1.210775    1.998243   -5.915926
 C   -1.409142    3.622420   -3.442017
 O   -1.668151    4.300232   -4.607557
 C   -1.849302    5.693095   -4.553159
 C   -1.133613    3.527079   -1.036772
 C   -1.372896    4.239524   -2.197437
 C   -0.260049   -0.609331    2.273996
 C   -0.143722   -1.567499    3.258222
 H   -1.649190   -5.260925    5.193228
 H   -2.641420   -4.317876    4.173649
 H    1.135646   -3.365207    4.755137
 H   -2.115912   -3.965281    1.938480
 H   -2.343678   -2.265111    0.191731
 H   -1.958953   -0.062084   -0.489461
 H   -0.994059    1.945584    1.035734
 H    0.840188   -0.378845   -0.723821
 H    3.292105   -0.383073   -1.093373
 H    3.379298    0.711558    0.313290
 H    3.789123   -0.305473    2.417182
 H    3.716778   -2.252323    3.923554
 H    2.695936   -4.368697    3.161923
 H    1.748281   -4.523526    0.893696
 H    1.858035   -2.593336   -0.623753
 H   -0.745368    0.480720   -2.427541
 H   -2.162628    2.493763   -6.115827
 H   -0.394345    2.704472   -6.080084
 H   -1.095138    1.147980   -6.588284
 H   -2.007501    6.003670   -5.585138
 H   -2.726809    5.964135   -3.957255
 H   -0.965249    6.200817   -4.154713
 H   -1.109278    4.043355   -0.090204
 H   -1.541369    5.301166   -2.120944
 H    0.268321    0.323525    2.385080
 H    0.464626   -1.355485    4.125910
