27 
1w7h_ligand_aiqm1.xyz
 N   20.788848   34.611366   31.358063
 C   21.642249   33.969765   30.482675
 N   22.839478   34.491721   30.272512
 C   23.636653   33.910635   29.355783
 C   23.271962   32.796524   28.634178
 C   22.008957   32.222086   28.868073
 C   21.183686   32.811631   29.803578
 O   19.942518   32.372384   30.166035
 C   19.458874   31.223614   29.471519
 C   18.085287   30.916366   29.984231
 C   16.984467   31.633383   29.512653
 C   15.707759   31.356070   29.992951
 C   15.520187   30.360273   30.948910
 C   16.615147   29.643135   31.423443
 C   17.892938   29.922339   30.944007
 H   21.263135   35.223613   32.001730
 H   20.083462   34.020841   31.768430
 H   24.601930   34.377032   29.214267
 H   23.942902   32.365510   27.905438
 H   21.700026   31.341229   28.322672
 H   20.130463   30.376565   29.645003
 H   19.429652   31.434383   28.398858
 H   17.127928   32.417403   28.778492
 H   14.861243   31.921479   29.625229
 H   14.527911   30.147153   31.323351
 H   16.478028   28.871343   32.169878
 H   18.745312   29.369458   31.322338
