27 
1w7h_ligand_xtb.xyz
 N   20.602175   34.825845   30.936667
 C   21.530233   34.097439   30.246703
 N   22.701271   34.656940   30.003453
 C   23.589103   33.991456   29.271568
 C   23.355464   32.736201   28.758873
 C   22.127579   32.123980   29.019776
 C   21.192318   32.801935   29.770573
 O   19.950925   32.350775   30.128148
 C   19.547188   31.077002   29.669855
 C   18.133225   30.830154   30.124137
 C   17.189204   31.844833   30.031598
 C   15.885777   31.625180   30.438560
 C   15.511234   30.387134   30.932979
 C   16.447186   29.371421   31.023968
 C   17.754096   29.593062   30.625798
 H   20.956582   35.626813   31.431313
 H   19.851264   34.308244   31.361237
 H   24.525201   34.506864   29.106590
 H   24.101587   32.226149   28.170832
 H   21.930749   31.135299   28.633455
 H   20.215387   30.298353   30.064131
 H   19.589893   31.044726   28.569099
 H   17.486933   32.808089   29.645722
 H   15.159393   32.421285   30.366567
 H   14.492788   30.214572   31.248070
 H   16.161007   28.404471   31.410847
 H   18.483237   28.799077   30.703781
