27 
1w7h_ligand_dft.xyz
 N   -1.870460    2.186373   -0.421282
 C   -2.462074    0.960178   -0.211660
 N   -3.783964    0.899749   -0.138746
 C   -4.350276   -0.288633    0.124580
 C   -3.633537   -1.453030    0.312069
 C   -2.234507   -1.397349    0.220829
 C   -1.637905   -0.181683   -0.039234
 O   -0.303524    0.057004   -0.170971
 C    0.591317   -1.003640    0.102993
 C    1.999097   -0.468634    0.059577
 C    2.296865    0.776099    0.617430
 C    3.603250    1.251754    0.611875
 C    4.626293    0.485764    0.056776
 C    4.334776   -0.755841   -0.498731
 C    3.024545   -1.227465   -0.501044
 H   -2.497596    2.885882   -0.790792
 H   -0.947346    2.169837   -0.828478
 H   -5.436101   -0.288768    0.180799
 H   -4.137305   -2.390719    0.518385
 H   -1.642276   -2.296778    0.351006
 H    0.461375   -1.811453   -0.631035
 H    0.369253   -1.416619    1.098533
 H    1.496616    1.372525    1.045075
 H    3.824653    2.223102    1.044230
 H    5.646345    0.858160    0.054424
 H    5.125187   -1.355906   -0.939654
 H    2.799287   -2.193270   -0.947287
