31 
1w84_ligand_xtb.xyz
 C    4.169965   12.189139   29.484819
 C    2.922359   12.998460   29.375505
 C    1.948029   12.656275   30.523173
 C    1.624966   11.195583   30.484149
 C    2.393755   10.271561   31.184072
 C    2.106030    8.923720   31.049719
 N    1.131663    8.456330   30.287517
 C    0.394179    9.333633   29.627821
 C    0.597916   10.702069   29.687458
 C    4.472716   11.050175   28.798337
 C    5.510927   13.376017   31.368650
 C    5.242459   12.403856   30.404998
 C    6.166488   11.348500   30.208692
 C    7.335716   11.252437   30.952375
 C    7.571718   12.225432   31.899330
 N    5.671860   10.545017   29.223343
 C    6.670214   13.273982   32.103592
 H    2.436424   12.791805   28.419688
 H    3.160703   14.063192   29.420632
 H    1.038891   13.250229   30.410751
 H    2.419374   12.906729   31.474685
 H    3.203453   10.600024   31.818222
 H    2.685590    8.175515   31.575644
 H   -0.396032    8.913256   29.018609
 H   -0.030876   11.374717   29.122748
 H    3.912655   10.556586   28.026711
 H    4.823018   14.192714   31.532187
 H    8.032807   10.442703   30.792548
 H    8.470368   12.180838   32.496733
 H    6.110735    9.712101   28.870765
 H    6.894930   14.016405   32.855525
