28 
1w8m_ligand_ani-2x.xyz
 C    5.566070   58.798767   51.214177
 C    6.740827   58.271172   50.392051
 C    6.342062   56.998343   49.639926
 C    5.750387   55.955721   50.591557
 C    4.605558   56.561895   51.397633
 N    5.066725   57.752838   52.100493
 C    5.309701   57.882199   53.433014
 O    5.753333   58.895100   53.944714
 C    5.012966   56.648235   54.303769
 O    5.330462   55.516132   54.019632
 O    4.384977   57.020359   55.407212
 C    4.066710   55.970451   56.343065
 C    3.334665   56.621380   57.494388
 H    4.748748   59.105856   50.547479
 H    5.844930   59.648380   51.838683
 H    7.574268   58.055471   51.073118
 H    7.087186   59.043399   49.694309
 H    7.207028   56.583132   49.110012
 H    5.596702   57.252393   48.871269
 H    6.519663   55.601254   51.287989
 H    5.389450   55.082411   50.035039
 H    4.187347   55.846141   52.101466
 H    3.801229   56.875409   50.716423
 H    4.997416   55.492574   56.662921
 H    3.456071   55.217586   55.836090
 H    3.964183   57.379329   57.968556
 H    2.414262   57.097042   57.144882
 H    3.072174   55.869731   58.245033
