81 
1w96_ligand_aiqm1.xyz
 C    0.630638   -2.110695   -0.800996
 C   -0.468612   -3.001612   -0.260177
 C   -1.411961   -2.138762    0.594832
 C   -2.614967   -2.931991    1.154325
 C   -3.657233   -1.980426    1.753649
 C   -3.983976   -0.792549    0.846545
 C   -2.678204   -0.116370    0.400256
 C   -2.854965    1.042790   -0.584391
 C   -1.509056    1.663913   -0.894546
 C   -1.149596    2.910285   -0.585745
 C    0.183561    3.506819   -0.912220
 C    1.018884    3.859698    0.330670
 C    1.720901    2.657812    0.949127
 C    2.927613    2.176579    0.141594
 C    3.718678    1.058326    0.830409
 C    2.942547   -0.243162    1.023523
 C    2.613565   -0.945164   -0.282989
 C    0.056426   -4.208940    0.509132
 C   -3.891569   -4.833302    0.631855
 C   -4.866438   -1.225367   -0.325499
 C   -3.874576    2.062311   -0.070453
 C    0.989115    4.991780   -2.576114
 C   -0.093587    5.807002    1.105269
 C    3.803317   -1.560821   -0.982334
 C    4.150843   -1.145104   -2.269519
 C    5.257512   -1.687681   -2.920779
 C    6.023315   -2.665026   -2.293693
 C    5.673607   -3.099612   -1.018076
 C    4.571865   -2.552640   -0.366275
 O    0.580608   -1.551308   -1.867785
 O   -0.687526   -1.608999    1.677369
 O   -3.172673   -3.725242    0.131223
 O   -3.094134   -1.553343    3.003153
 O   -1.859738   -1.096702   -0.244781
 O   -0.063637    4.681135   -1.693611
 O    0.244098    4.457560    1.357188
 O    1.656329   -1.973708    0.052813
 H   -1.039315   -3.321205   -1.130589
 H   -2.246918   -3.568276    1.960317
 H   -4.580553   -2.539708    1.950237
 H   -4.537479   -0.076925    1.464684
 H   -2.157980    0.250232    1.298080
 H   -3.225399    0.616100   -1.522699
 H   -0.798246    0.996823   -1.384820
 H   -1.832048    3.580727   -0.074705
 H    0.760302    2.794512   -1.517519
 H    1.777155    4.584529   -0.001354
 H    2.057092    2.955071    1.945766
 H    0.991450    1.856040    1.090291
 H    2.608819    1.854160   -0.857382
 H    3.604420    3.024045   -0.016490
 H    4.624597    0.851843    0.252942
 H    4.048219    1.415043    1.811111
 H    3.519690   -0.927392    1.651696
 H    2.000930   -0.064905    1.546039
 H    2.129048   -0.250434   -0.975332
 H   -0.760250   -4.885011    0.760544
 H    0.553735   -3.894383    1.423633
 H    0.773559   -4.759789   -0.100851
 H   -4.241713   -5.401604   -0.225595
 H   -3.246113   -5.464944    1.252970
 H   -4.752154   -4.519458    1.228230
 H   -4.298201   -1.848083   -1.012531
 H   -5.725554   -1.798331    0.032822
 H   -5.247801   -0.365556   -0.873441
 H   -3.953295    2.898037   -0.763443
 H   -3.573500    2.465738    0.899069
 H   -4.868506    1.627531    0.037538
 H    1.172949    4.168931   -3.275775
 H    0.693167    5.875608   -3.137115
 H    1.919620    5.211965   -2.040771
 H   -0.833528    5.900626    0.309544
 H   -0.502598    6.209106    2.031362
 H    0.797217    6.381346    0.826549
 H    3.543479   -0.401267   -2.772832
 H    5.510601   -1.352610   -3.918554
 H    6.881075   -3.091861   -2.796928
 H    6.257947   -3.870038   -0.529661
 H    4.294841   -2.909032    0.619561
 H   -1.288861   -1.482081    2.424490
 H   -3.641475   -0.852005    3.361770
