33 
1wbw_ligand_ani-2x.xyz
 C   23.532816   33.680531   30.310316
 C   22.473518   32.830225   30.647700
 C   21.475874   33.316079   31.465459
 C   21.555141   34.662785   31.915444
 C   23.534452   34.969068   30.807991
 O   20.385887   32.631621   31.919934
 N   20.523196   35.171991   32.675920
 C   17.503244   32.469059   30.909074
 C   17.660878   31.346007   31.771964
 C   16.494938   30.783817   32.361603
 C   15.225692   31.348704   32.065830
 C   15.108771   32.421610   31.225282
 C   16.262974   32.988200   30.640753
 C   18.931853   30.756375   32.059109
 C   19.003015   29.679310   32.905422
 C   17.844317   29.128362   33.502151
 C   16.617094   29.668167   33.234073
 N   22.565052   35.460131   31.596926
 C   20.186772   31.305238   31.437164
 H   24.337472   33.329578   29.671568
 H   22.452541   31.811227   30.268556
 H   24.343866   35.656465   30.569841
 H   19.941288   34.496005   33.148712
 H   20.745180   36.015883   33.182261
 H   18.381626   32.925490   30.466123
 H   14.342695   30.906694   32.523182
 H   14.131340   32.843968   31.004804
 H   16.163654   33.842775   29.976253
 H   19.969636   29.232207   33.131696
 H   17.939834   28.275127   34.169113
 H   15.716060   29.253570   33.681405
 H   21.046748   30.684637   31.718355
 H   20.110378   31.317795   30.339314
