43 
1wdq_ligand_aiqm1.xyz
 C   -0.260308   -0.636073    1.022551
 C   -0.330087   -0.120257    2.458228
 C    0.925233    0.662452    2.795293
 C    2.138343   -0.204807    2.519838
 C    2.114038   -0.626691    1.056263
 C    3.251744   -1.527732    0.661394
 O   -0.336244    0.460097    0.126677
 O   -1.460152    0.690786    2.713164
 O    0.976652    1.034223    4.164935
 O    3.343337    0.498409    2.747824
 O    0.911931   -1.362009    0.793725
 O    3.138775   -1.720860   -0.751226
 C   -2.459867    0.721504   -3.454380
 C   -3.213937    0.355116   -2.183427
 C   -2.458570    0.788824   -0.949117
 C   -1.079854    0.167128   -1.046271
 C   -0.350085    0.721842   -2.262594
 C    0.987407    0.044306   -2.499257
 O   -3.056398    1.092896   -4.431202
 O   -4.495582    0.928999   -2.179455
 O   -3.071826    0.326203    0.245603
 O   -1.135300    0.532328   -3.467458
 O    0.831070   -1.354538   -2.406136
 H   -1.083086   -1.328438    0.838237
 H   -0.377129   -1.005557    3.104107
 H    0.969500    1.555531    2.160805
 H    2.080138   -1.098009    3.159635
 H    2.150511    0.275018    0.430638
 H    4.196095   -1.043223    0.918005
 H    3.174783   -2.482015    1.189383
 H   -2.037393    0.693649    1.939526
 H    0.156231    1.488912    4.368148
 H    3.258069    0.931817    3.601171
 H    3.878648   -2.251413   -1.048201
 H   -3.288843   -0.739408   -2.174953
 H   -2.395306    1.883866   -0.932074
 H   -1.190766   -0.912486   -1.162349
 H   -0.198265    1.800519   -2.141415
 H    1.333365    0.308732   -3.501927
 H    1.702533    0.424829   -1.773452
 H   -4.699795    1.157816   -3.092962
 H   -4.005492    0.547821    0.204797
 H    1.466281   -1.680509   -1.762291
