43 
1wdq_ligand_xtb.xyz
 C   -0.291307   -0.787258    1.304841
 C   -0.262170   -0.251534    2.747807
 C    0.899065    0.742254    2.904789
 C    2.206725    0.078278    2.458575
 C    2.025522   -0.379623    1.008392
 C    3.258787   -1.079097    0.451677
 O   -0.739095    0.267712    0.490381
 O   -1.480559    0.340631    3.103227
 O    1.038239    1.151664    4.244673
 O    3.284975    0.970596    2.531167
 O    0.944562   -1.294885    0.907112
 O    3.100207   -1.186542   -0.949836
 C   -1.807601    1.558326   -3.113982
 C   -2.841955    0.602810   -2.538537
 C   -2.572477    0.518345   -1.026187
 C   -1.190665   -0.105307   -0.803994
 C   -0.170232    0.308513   -1.889019
 C    0.225532   -0.885178   -2.793104
 O   -2.138962    2.460236   -3.838258
 O   -4.131944    1.080825   -2.791995
 O   -3.531239   -0.272307   -0.382665
 O   -0.556660    1.411003   -2.704309
 O    0.576549   -2.012073   -2.057825
 H   -0.983501   -1.638952    1.232060
 H   -0.101339   -1.088903    3.436973
 H    0.705914    1.619030    2.264074
 H    2.390949   -0.799695    3.099480
 H    1.830949    0.511941    0.396294
 H    4.138781   -0.477467    0.702484
 H    3.338319   -2.070652    0.910676
 H   -1.825657    0.793300    2.321175
 H    0.149052    1.268260    4.603724
 H    3.211122    1.430034    3.378314
 H    3.841252   -1.685062   -1.310796
 H   -2.734888   -0.401381   -2.976068
 H   -2.578560    1.539027   -0.606856
 H   -1.300320   -1.197077   -0.841143
 H    0.734137    0.664266   -1.383637
 H   -0.623785   -1.174556   -3.419344
 H    1.041406   -0.552796   -3.449394
 H   -4.040111    1.864012   -3.362628
 H   -4.394887   -0.035040   -0.748025
 H    1.356268   -1.806080   -1.510491
