43 
1wdq_ligand_ani-2x.xyz
 C   -0.246955   -0.687127    1.022343
 C   -0.344265   -0.102539    2.434848
 C    0.913050    0.689357    2.754906
 C    2.150746   -0.162227    2.516424
 C    2.109144   -0.684063    1.084204
 C    3.270828   -1.577601    0.703722
 O   -0.273072    0.348769    0.068763
 O   -1.450747    0.758347    2.586682
 O    0.920654    1.096197    4.106853
 O    3.325981    0.598087    2.687502
 O    0.913130   -1.455773    0.893733
 O    3.200273   -1.771647   -0.709287
 C   -2.501169    0.793466   -3.425974
 C   -3.245952    0.388659   -2.160408
 C   -2.441408    0.697508   -0.911287
 C   -1.065300    0.085627   -1.076866
 C   -0.387154    0.710424   -2.287882
 C    0.984791    0.097112   -2.545072
 O   -3.085797    1.265494   -4.370055
 O   -4.481055    1.046018   -2.105487
 O   -3.062863    0.149512    0.241670
 O   -1.188465    0.512312   -3.474292
 O    0.965258   -1.300508   -2.364654
 H   -1.094272   -1.361858    0.848317
 H   -0.413927   -0.940238    3.150606
 H    0.950861    1.563219    2.084432
 H    2.126028   -1.020311    3.211596
 H    2.106624    0.179779    0.403265
 H    4.218159   -1.102304    0.988155
 H    3.173133   -2.534016    1.233724
 H   -2.101634    0.544315    1.894809
 H    0.104429    1.598449    4.242724
 H    3.265710    0.998528    3.566100
 H    3.844127   -2.441668   -0.968336
 H   -3.386052   -0.707472   -2.193690
 H   -2.349150    1.787248   -0.793568
 H   -1.155400   -0.997472   -1.244331
 H   -0.269666    1.791640   -2.128974
 H    1.277936    0.337965   -3.574362
 H    1.707195    0.570878   -1.866170
 H   -4.652431    1.346865   -3.014302
 H   -3.991812    0.421277    0.212548
 H    1.660887   -1.530627   -1.723129
