45 
1wdr_ligand_xtb.xyz
 C   -0.976832    1.159349   -0.113135
 C   -2.156850    1.305533    0.865116
 C   -3.029768    0.048700    0.746017
 C   -3.480069   -0.116702   -0.709363
 C   -2.247709   -0.159913   -1.618500
 C   -2.642502   -0.172497   -3.098718
 O   -0.212946    0.061145    0.327184
 O   -1.730272    1.508762    2.182606
 O   -4.171660    0.141349    1.566654
 O   -4.211288   -1.300399   -0.885045
 O   -1.421840    0.988994   -1.424017
 O   -1.523887   -0.217419   -3.940990
 C    3.678429   -1.154743    0.825633
 C    3.037927   -0.474330    2.043484
 C    1.522375   -0.433327    1.849136
 C    1.175857    0.223871    0.508194
 C    1.962205   -0.437610   -0.639696
 C    1.809816    0.363477   -1.939663
 O    5.053975   -1.118511    0.988443
 O    3.306810   -1.175773    3.229354
 O    0.890747    0.296410    2.870655
 O    3.350902   -0.474707   -0.357072
 O    2.320834    1.660494   -1.804000
 H   -0.374125    2.076879   -0.126521
 H   -2.752967    2.182727    0.586368
 H   -2.428687   -0.827596    1.038469
 H   -4.098455    0.756624   -0.977987
 H   -1.670043   -1.064084   -1.385358
 H   -3.251399    0.717674   -3.306631
 H   -3.231972   -1.068000   -3.297413
 H   -0.941722    0.964404    2.354283
 H   -3.898514    0.588832    2.378462
 H   -4.845762   -1.345596   -0.157583
 H   -0.981229    0.555196   -3.741414
 H    3.312859   -2.202624    0.764080
 H    3.429740    0.553412    2.102035
 H    1.142779   -1.467563    1.840646
 H    1.438381    1.288958    0.555968
 H    1.578756   -1.459491   -0.780621
 H    2.317948   -0.177009   -2.749059
 H    0.751110    0.462645   -2.180699
 H    5.468921   -1.287246    0.134271
 H    4.259088   -1.324167    3.276080
 H    1.233226   -0.029459    3.712897
 H    3.238012    1.582731   -1.512549
