45 
1wdr_ligand_ani-2x.xyz
 C   -1.023941    0.973172    0.327598
 C   -2.261905    0.802888    1.214350
 C   -3.222326   -0.198853    0.593931
 C   -3.524094    0.171840   -0.850975
 C   -2.198966    0.277717   -1.595085
 C   -2.280405    0.641149   -3.065160
 O   -0.241801   -0.198402    0.343752
 O   -1.933924    0.348649    2.508986
 O   -4.445217   -0.227163    1.299159
 O   -4.313718   -0.820210   -1.467257
 O   -1.391954    1.295449   -0.980484
 O   -1.031807    0.434886   -3.695352
 C    3.793665   -0.943224    0.894406
 C    3.133556    0.006958    1.889578
 C    1.627274   -0.152823    1.841361
 C    1.157580    0.026061    0.405194
 C    1.878380   -0.963722   -0.511909
 C    1.519127   -0.766369   -1.980079
 O    5.159382   -0.652277    0.886026
 O    3.554123   -0.250923    3.213067
 O    0.970430    0.808406    2.654881
 O    3.288240   -0.753441   -0.413502
 O    1.694902    0.575988   -2.390338
 H   -0.428419    1.814264    0.705144
 H   -2.778799    1.776980    1.273004
 H   -2.742344   -1.190870    0.606761
 H   -4.026665    1.154741   -0.871365
 H   -1.688830   -0.694998   -1.516760
 H   -2.616276    1.685845   -3.160824
 H   -3.007890   -0.001916   -3.569802
 H   -0.999939    0.563280    2.681567
 H   -4.224230   -0.439212    2.217278
 H   -5.088010   -0.942695   -0.900266
 H   -0.341967    0.863081   -3.157376
 H    3.611446   -1.992327    1.200140
 H    3.385375    1.036130    1.585797
 H    1.357786   -1.165947    2.181526
 H    1.400508    1.044104    0.069273
 H    1.632238   -1.994692   -0.211398
 H    2.123711   -1.445427   -2.596119
 H    0.468606   -1.014327   -2.148393
 H    5.493515   -0.935217    0.025294
 H    4.514554   -0.141570    3.227135
 H    1.417168    0.797544    3.513893
 H    2.632061    0.786872   -2.276658
