22 
1we2_ligand_aiqm1.xyz
 C    0.720825   -1.266164   -0.108934
 C   -0.758547   -1.462824    0.075454
 O   -0.978710   -1.810586    1.433061
 C   -1.528383   -0.199982   -0.295425
 O   -2.860682   -0.393642    0.147525
 C   -0.903834    1.018334    0.352989
 C    1.281417   -0.053085   -0.236402
 C    0.493362    1.236633   -0.211898
 C    2.749827    0.098376   -0.419712
 O    3.387700   -1.087424   -0.533443
 O    3.332046    1.153129   -0.468649
 O   -1.779417    2.109601    0.064310
 H    1.331697   -2.161995   -0.106064
 H   -1.105978   -2.275066   -0.569575
 H   -1.928994   -1.738512    1.569884
 H   -1.512216   -0.069125   -1.383215
 H   -3.289128    0.465192    0.104777
 H   -0.850941    0.856355    1.431859
 H    1.034121    1.984023    0.371605
 H    0.406615    1.636261   -1.226686
 H    4.322856   -0.876536   -0.639543
 H   -1.563634    2.836935    0.647884
