27 
1wht_ligand_dft.xyz
 C    2.049159    1.623686    0.346410
 C    0.968731    0.880620   -0.398229
 C    0.830975   -0.556758    0.084610
 C    2.103071   -1.326226   -0.210577
 C   -0.357169   -1.288630   -0.586126
 C   -1.685107   -0.637412   -0.281781
 C   -2.272833   -0.788951    0.977096
 C   -2.334637    0.152414   -1.231695
 C   -3.479134   -0.166258    1.278454
 C   -3.542318    0.778623   -0.934241
 C   -4.117698    0.620604    0.322486
 O    2.278583    2.836208   -0.188180
 O    2.640539    1.217603    1.318744
 O    2.916158   -1.037803   -1.056196
 O    2.208328   -2.430701    0.550073
 H    1.199672    0.912860   -1.467643
 H    0.026142    1.421325   -0.257330
 H    0.682722   -0.567458    1.168873
 H   -0.362664   -2.326742   -0.236792
 H   -0.191501   -1.314154   -1.669915
 H   -1.779845   -1.404856    1.726111
 H   -1.888356    0.278480   -2.215390
 H   -3.924561   -0.298235    2.260136
 H   -4.033971    1.388443   -1.686485
 H   -5.060477    1.105941    0.556203
 H    2.976414    3.243178    0.349802
 H    3.029331   -2.871510    0.278449
