27 
1wht_ligand_aiqm1.xyz
 C    2.738762   -0.951508   -0.743626
 C    1.532759   -0.597874    0.082679
 C    1.051782    0.812007   -0.235033
 C    2.153557    1.805854    0.043027
 C   -0.176069    1.207614    0.605987
 C   -1.351087    0.296739    0.353209
 C   -1.950606    0.248448   -0.909626
 C   -1.846219   -0.540040    1.356472
 C   -3.016066   -0.611348   -1.159760
 C   -2.912945   -1.402312    1.107760
 C   -3.499951   -1.440946   -0.152655
 O    3.206256   -2.179338   -0.454170
 O    3.241682   -0.228412   -1.566176
 O    2.950090    1.708593    0.940246
 O    2.109710    2.856114   -0.795741
 H    1.806918   -0.678185    1.136280
 H    0.741781   -1.328471   -0.104632
 H    0.790545    0.884633   -1.290377
 H   -0.438952    2.239653    0.360875
 H    0.091182    1.182515    1.665121
 H   -1.580146    0.888617   -1.702679
 H   -1.393552   -0.515289    2.341505
 H   -3.465824   -0.631431   -2.143386
 H   -3.280242   -2.041343    1.899669
 H   -4.326405   -2.109742   -0.348886
 H    3.984268   -2.311843   -1.010149
 H    2.838971    3.437295   -0.546935
