27 
1ws5_ligand_ani-2x.xyz
 C    1.325889    0.233842    0.945303
 C    0.852505   -1.172038    1.297808
 C   -0.036698   -1.716131    0.190598
 C   -1.158855   -0.730851   -0.096792
 C   -0.571667    0.635352   -0.456417
 C   -1.629828    1.714749   -0.614597
 C    2.867989    1.323711   -0.455685
 O    2.242263    0.102137   -0.100458
 O    0.118732   -1.095142    2.499045
 O   -0.578658   -2.938981    0.652183
 O   -1.918386   -1.300034   -1.141052
 O    0.258676    1.089970    0.611946
 O   -2.524438    1.323694   -1.653266
 H    1.813764    0.693246    1.816096
 H    1.738824   -1.815784    1.407320
 H    0.551787   -1.869284   -0.726838
 H   -1.761017   -0.617976    0.821510
 H    0.000960    0.539614   -1.392403
 H   -2.155760    1.815846    0.344799
 H   -1.142967    2.669040   -0.851425
 H    3.397490    1.760942    0.403775
 H    2.138422    2.054452   -0.825735
 H    3.590266    1.092507   -1.240863
 H   -0.346550   -1.942991    2.561263
 H   -1.318014   -3.145618    0.060420
 H   -2.442881   -0.581535   -1.533257
 H   -3.311950    1.877262   -1.613678
