41 
1x39_ligand_aiqm1.xyz
 O   -2.378486    3.468853    1.497924
 C   -2.836415    3.235905    0.171155
 C   -2.875823    1.733889   -0.050704
 C   -3.869092    1.074893    0.900740
 O   -5.154162    1.390561    0.395776
 C   -3.661019   -0.423675    0.996237
 O   -4.714740   -0.924322    1.800588
 C   -2.303103   -0.704255    1.615978
 O   -2.092593   -2.104536    1.624215
 N   -1.555333    1.131825    0.096680
 C   -0.389286    1.482222   -0.552400
 C    0.546757    0.553443   -0.178636
 N   -0.019606   -0.375119    0.670532
 C   -1.269411    0.011465    0.812738
 C    1.970314    0.419248   -0.598297
 N    2.212417   -0.962973   -0.966570
 C    3.518165   -1.417348   -1.128288
 C    4.584782   -0.539809   -1.369797
 C    5.867958   -1.037074   -1.592900
 C    6.119667   -2.403701   -1.575975
 C    5.062982   -3.278745   -1.332649
 C    3.781015   -2.796348   -1.110541
 H   -2.592204    4.368087    1.745115
 H   -2.169169    3.707414   -0.555657
 H   -3.849166    3.616874    0.024236
 H   -3.230369    1.571176   -1.070165
 H   -3.735596    1.495377    1.903904
 H   -5.787783    0.862727    0.889217
 H   -3.696388   -0.869586   -0.005291
 H   -4.550912   -1.859361    1.942152
 H   -2.297977   -0.319073    2.644317
 H   -1.148064   -2.252100    1.514433
 H   -0.321878    2.340884   -1.199572
 H    2.638363    0.745876    0.213500
 H    2.168821    1.071251   -1.454785
 H    1.619010   -1.584851   -0.435447
 H    4.412838    0.528549   -1.388329
 H    6.676703   -0.340646   -1.779413
 H    7.117398   -2.781273   -1.748440
 H    5.234625   -4.347598   -1.314060
 H    2.966558   -3.488027   -0.926620
