41 
1x39_ligand_ani-2x.xyz
 O   -2.218931    3.396929    1.682379
 C   -2.736223    3.279281    0.373326
 C   -2.890475    1.797178    0.042209
 C   -3.869442    1.134515    1.015785
 O   -5.161281    1.583462    0.666030
 C   -3.775538   -0.380627    0.942051
 O   -4.767860   -0.915082    1.793385
 C   -2.392080   -0.840032    1.374443
 O   -2.329364   -2.238749    1.222781
 N   -1.598241    1.104565    0.049930
 C   -0.443319    1.471778   -0.617063
 C    0.437303    0.442274   -0.439294
 N   -0.146185   -0.562136    0.299361
 C   -1.355198   -0.128938    0.570189
 C    1.859966    0.326608   -0.886681
 N    2.291425   -1.036786   -0.767850
 C    3.592155   -1.431979   -0.992066
 C    4.546915   -0.564448   -1.543985
 C    5.843373   -1.008127   -1.781201
 C    6.219136   -2.312199   -1.480121
 C    5.273570   -3.175609   -0.932900
 C    3.976827   -2.747691   -0.688784
 H   -2.248703    4.325626    1.938971
 H   -2.070775    3.754329   -0.363719
 H   -3.726595    3.747644    0.285852
 H   -3.325495    1.713763   -0.960983
 H   -3.612532    1.442393    2.041976
 H   -5.778901    1.090876    1.224584
 H   -3.941872   -0.703517   -0.098858
 H   -4.659319   -1.875955    1.773209
 H   -2.263923   -0.564484    2.438034
 H   -1.396743   -2.465330    1.089003
 H   -0.374986    2.409225   -1.151124
 H    2.492285    1.005639   -0.284315
 H    1.962127    0.673337   -1.926346
 H    1.715551   -1.604959   -0.162902
 H    4.279240    0.460021   -1.788082
 H    6.566500   -0.316979   -2.208809
 H    7.233416   -2.652026   -1.668509
 H    5.547371   -4.199396   -0.690180
 H    3.246620   -3.434295   -0.264827
