28 
1x76_ligand_aiqm1.xyz
 C   25.915013   35.922906   41.473380
 C   27.047009   35.176661   41.796075
 C   28.188770   35.295461   41.018406
 C   28.218569   36.155805   39.913084
 C   27.074919   36.897919   39.602156
 C   25.929400   36.783145   40.376737
 O   24.820261   35.769301   42.268982
 C   29.418331   36.279581   39.097312
 C   30.644157   35.694272   39.162937
 C   31.414050   36.224932   38.069314
 C   30.546106   37.115837   37.420758
 O   29.334620   37.155984   38.035935
 C   32.714377   36.040076   37.588139
 C   33.096915   36.763432   36.464024
 C   32.221561   37.650544   35.824383
 C   30.920241   37.841142   36.298761
 O   34.369947   36.571585   36.006783
 C   30.013254   38.746260   35.653725
 N   29.289417   39.480447   35.124010
 H   27.017374   34.514698   42.650238
 H   29.063249   34.712876   41.275459
 H   27.086109   37.564735   38.752100
 H   25.048048   37.362748   40.127349
 H   24.115270   36.333385   41.944531
 H   30.956484   34.976533   39.897997
 H   33.420147   35.365643   38.052286
 H   32.548951   38.199874   34.950466
 H   34.511050   37.122119   35.234071
