30 
1x7r_ligand_xtb.xyz
 C   17.140323   31.968576   25.762939
 C   17.653308   33.231840   26.031887
 O   18.197102   33.447460   27.248771
 C   17.601250   34.234444   25.068497
 C   17.038493   33.994617   23.823140
 O   17.003321   34.974478   22.924592
 C   16.511614   32.710357   23.530481
 C   15.917433   32.435550   22.232776
 O   15.844855   33.295438   21.347940
 C   15.405899   31.071593   22.078148
 C   15.532983   30.208864   23.110988
 O   16.087316   30.474869   24.297047
 C   16.576132   31.718329   24.521768
 C   14.753271   30.661402   20.827671
 C   15.255486   31.065346   19.591690
 C   14.642412   30.676818   18.419598
 C   13.504353   29.876643   18.456541
 O   12.929137   29.515032   17.279894
 C   12.991803   29.475292   19.685300
 C   13.611500   29.864608   20.856106
 H   17.181395   31.195152   26.509884
 H   18.515920   34.356757   27.313100
 H   17.996997   35.218679   25.271201
 H   16.562730   34.611046   22.107112
 H   15.195245   29.182832   23.054309
 H   16.135001   31.686698   19.549273
 H   15.028390   30.983966   17.460939
 H   12.148020   28.973944   17.447586
 H   12.100892   28.861521   19.722096
 H   13.189720   29.564150   21.803924
