30 
1x7r_ligand_aiqm1.xyz
 C   17.173318   31.941637   25.752486
 C   17.653949   33.216180   26.038732
 O   18.196739   33.388020   27.271039
 C   17.584036   34.261090   25.120458
 C   17.019399   34.028547   23.870539
 O   16.956784   35.036012   23.002128
 C   16.521710   32.744819   23.537176
 C   15.937162   32.485822   22.239440
 O   15.875179   33.371584   21.373705
 C   15.428453   31.123935   22.046015
 C   15.566724   30.241749   23.055939
 O   16.145808   30.483938   24.249001
 C   16.613381   31.735289   24.503666
 C   14.756760   30.690991   20.794051
 C   15.276319   31.006785   19.533404
 C   14.653435   30.575269   18.371319
 C   13.487045   29.815787   18.453175
 O   12.914235   29.413861   17.281865
 C   12.950550   29.495472   19.695674
 C   13.585869   29.931288   20.854650
 H   17.234171   31.146361   26.478149
 H   18.493402   34.295714   27.363674
 H   17.956672   35.251982   25.348723
 H   16.532524   34.671828   22.190086
 H   15.220460   29.220467   22.992619
 H   16.169351   31.611684   19.463004
 H   15.051868   30.822719   17.396490
 H   12.114068   28.922601   17.479076
 H   12.036545   28.916187   19.763417
 H   13.146383   29.688682   21.815497
