30 
1x7r_ligand_ani-2x.xyz
 C   17.207688   31.943602   25.747596
 C   17.675728   33.219631   26.048736
 O   18.229178   33.393556   27.272708
 C   17.577209   34.267294   25.131895
 C   17.002282   34.039344   23.884413
 O   16.920846   35.054367   23.030564
 C   16.518228   32.752705   23.544103
 C   15.920626   32.477758   22.239296
 O   15.841153   33.353163   21.368365
 C   15.408646   31.110544   22.055864
 C   15.573133   30.229430   23.066350
 O   16.181439   30.484279   24.239821
 C   16.636009   31.743313   24.502272
 C   14.732997   30.695156   20.798447
 C   15.278231   30.979366   19.539506
 C   14.677052   30.539325   18.373439
 C   13.489985   29.810655   18.437227
 O   12.936967   29.408307   17.262560
 C   12.918239   29.526806   19.676340
 C   13.543847   29.957994   20.838855
 H   17.284973   31.134951   26.462284
 H   18.513675   34.311358   27.365121
 H   17.939858   35.264244   25.364420
 H   16.502313   34.708548   22.207314
 H   15.256630   29.191983   23.021890
 H   16.191700   31.561271   19.478745
 H   15.108913   30.758278   17.402004
 H   12.124494   28.920405   17.446592
 H   11.990008   28.961074   19.736397
 H   13.070254   29.737594   21.792078
