37 
1x8b_ligand_ani-2x.xyz
 O    8.174467   55.639586   21.986542
 C    6.950259   55.223843   22.415864
 C    6.022039   54.844438   21.426591
 C    4.758684   54.410517   21.773193
 C    4.424935   54.357676   23.128524
 C    5.345143   54.734771   24.123778
 C    6.625305   55.173579   23.761196
 C    4.671574   54.557210   25.387139
 C    3.375387   54.082106   25.102203
 N    3.246102   53.966006   23.732093
 C    5.018900   54.740245   26.714331
 C    6.306210   55.181478   27.333574
 O    7.353884   55.516104   26.828621
 C    4.094511   54.474634   27.735817
 C    4.781919   54.716951   29.050303
 O    4.389264   54.591461   30.186120
 N    6.070198   55.133635   28.704723
 C    2.794377   54.010919   27.441109
 C    2.451364   53.799283   26.110422
 C    1.774526   53.745951   28.486862
 C    1.444104   54.711784   29.438690
 C    0.464065   54.458710   30.391301
 C   -0.199550   53.236082   30.407684
 C    0.118177   52.268539   29.458411
 C    1.088206   52.529440   28.497320
 H    8.709192   55.864758   22.759164
 H    6.327020   54.902455   20.386081
 H    4.041974   54.117365   21.009062
 H    7.347620   55.466786   24.518625
 H    2.417368   53.652333   23.253710
 H    6.777939   55.360995   29.390434
 H    1.456501   53.440113   25.861273
 H    1.962275   55.666542   29.435978
 H    0.222823   55.220524   31.127250
 H   -0.962509   53.037255   31.155899
 H   -0.398520   51.312149   29.457969
 H    1.330266   51.770776   27.755145
