51 
1x8j_ligand_aiqm1.xyz
 C    2.269877    1.233643   -1.082656
 C    3.766146    0.933403   -1.192687
 C    4.368871    0.572444    0.160615
 O    4.284181    1.671375    1.076123
 C    3.603812   -0.573107    0.792634
 C    2.112079   -0.260095    0.907387
 C    1.346419   -1.354580    1.647117
 C   -0.091617   -0.918656    1.896159
 C   -0.796770   -0.547440    0.591982
 C    0.001948    0.520780   -0.197617
 C    1.464770    0.067246   -0.464519
 C   -0.739230    0.958952   -1.480128
 C   -2.198548    1.379958   -1.241444
 C   -2.934769    0.275386   -0.487984
 C   -2.199012   -0.001256    0.827138
 C   -3.215400   -0.777740    1.677069
 C   -4.543246   -0.056136    1.365877
 C   -4.327394    0.637394    0.017461
 O   -5.127066    1.354634   -0.530492
 C   -3.131094   -0.964047   -1.389175
 C    1.501343   -1.137325   -1.443465
 H    2.131193    2.119381   -0.453472
 H    1.876518    1.479325   -2.072936
 H    3.936212    0.101158   -1.882115
 H    4.295418    1.798097   -1.608119
 H    5.421392    0.292599    0.029972
 H    4.795287    2.399129    0.715559
 H    4.018664   -0.769426    1.785381
 H    3.766671   -1.475985    0.193768
 H    2.028891    0.657856    1.504956
 H    1.841816   -1.572855    2.598141
 H    1.365046   -2.284625    1.066060
 H   -0.643152   -1.709930    2.414706
 H   -0.088931   -0.046259    2.560680
 H   -0.872980   -1.453435   -0.023191
 H    0.072369    1.403080    0.455403
 H   -0.718764    0.132084   -2.197311
 H   -0.205361    1.784989   -1.955546
 H   -2.703102    1.591216   -2.187743
 H   -2.230866    2.302348   -0.650880
 H   -2.070789    0.982799    1.314420
 H   -3.250640   -1.825846    1.368224
 H   -2.978034   -0.757710    2.740552
 H   -5.407573   -0.719767    1.314849
 H   -4.769780    0.710404    2.109902
 H   -2.196523   -1.299634   -1.838009
 H   -3.811335   -0.705800   -2.206704
 H   -3.561343   -1.808205   -0.843716
 H    1.288353   -0.806881   -2.463795
 H    2.480691   -1.619269   -1.467553
 H    0.775052   -1.913675   -1.197477
