54 
1xap_ligand_ani-2x.xyz
 C   41.409207   20.731091  100.383863
 C   42.329009   21.917207  100.240233
 C   41.941341   23.166067  100.536406
 C   40.884990   23.596236  101.474058
 C   40.137827   24.741705  101.169609
 C   39.138742   25.182634  102.019869
 C   38.862574   24.488521  103.200112
 C   37.774089   25.021652  104.080493
 O   37.398774   26.164475  104.045602
 O   37.206332   24.149790  104.944375
 C   39.635260   23.375968  103.537408
 C   40.636278   22.936148  102.683232
 C   43.675692   21.665555   99.654883
 C   44.731002   22.568512   99.846525
 C   45.971049   22.320658   99.287211
 C   46.225232   21.180483   98.513183
 C   45.203120   20.224523   98.387138
 C   43.943082   20.510987   98.919059
 C   45.393353   18.891331   97.656651
 C   44.862485   17.726681   98.507215
 C   44.607718   18.923120   96.332695
 C   46.886063   18.622113   97.386441
 C   47.624063   19.855480   96.877011
 C   47.610322   21.017829   97.889754
 C   48.021959   22.291417   97.131023
 C   48.641656   20.763865   99.006310
 H   41.925051   19.899176  100.873822
 H   40.509970   20.983450  100.949724
 H   41.082051   20.384153   99.395976
 H   42.411321   23.990559   99.993733
 H   40.342704   25.277800  100.246103
 H   38.558224   26.072440  101.794173
 H   37.500167   23.247777  104.757803
 H   39.490947   22.854986  104.482046
 H   41.238701   22.072087  102.951146
 H   44.584246   23.458291  100.452105
 H   46.758336   23.049249   99.458800
 H   43.128692   19.812156   98.747304
 H   45.346604   17.705520   99.490421
 H   43.782330   17.788679   98.664734
 H   45.066851   16.773737   98.004596
 H   43.545325   19.121486   96.509257
 H   44.977374   19.701633   95.655729
 H   44.688247   17.958193   95.818367
 H   46.968508   17.797595   96.666974
 H   47.355568   18.269049   98.315876
 H   47.163630   20.198419   95.939409
 H   48.666831   19.611570   96.637626
 H   47.285927   22.543340   96.358662
 H   48.121309   23.154642   97.795343
 H   48.991691   22.137445   96.642682
 H   48.627025   21.573758   99.743871
 H   48.442381   19.829005   99.542682
 H   49.652874   20.706255   98.586676
