93 
1xdd_ligand_dft.xyz
 O    1.936874    2.148730   -1.324850
 C    2.683622    1.919533   -0.397794
 C    2.596503    2.583878    0.959411
 C    2.931592    1.617251    2.096848
 C    3.498852    3.832951    1.001270
 C    3.187820    4.871750   -0.074366
 O    3.695039    1.036515   -0.464358
 C    3.799179    0.235879   -1.658714
 C    4.814778    0.846151   -2.614494
 C    6.248059    0.870082   -2.062014
 C    6.540741    2.092676   -1.175272
 C    6.561137   -0.398802   -1.316970
 C    5.658673   -1.308478   -0.926238
 C    4.179151   -1.186680   -1.241531
 C    6.061604   -2.503967   -0.182647
 C    5.184745   -3.375826    0.325779
 C    3.691091   -3.208216    0.220090
 C    3.114889   -4.211466   -0.793160
 C    3.334575   -1.733039   -0.068211
 C    1.831199   -1.499186   -0.253540
 C    0.987696   -1.946110    0.940432
 C   -0.422729   -1.339098    0.927306
 N   -0.409271    0.132388    0.970795
 C   -0.403228    0.798045    2.161540
 O   -0.546120    2.013084    2.254266
 C   -0.155938   -0.054194    3.397969
 C   -0.868238   -1.426485    3.432363
 O   -0.001907   -2.441626    3.923333
 C   -1.333703   -1.854416    2.042704
 C   -0.819977    0.856017   -0.233854
 C   -2.282624    0.628060   -0.550197
 C   -2.669626   -0.123479   -1.686097
 C   -3.987644   -0.385335   -1.960716
 C   -5.017761    0.100892   -1.110204
 C   -6.400431   -0.136196   -1.376281
 C   -6.821102   -0.901385   -2.610281
 O   -6.360569   -2.246529   -2.621513
 C   -7.347576    0.340168   -0.485922
 O   -8.653009    0.070855   -0.770828
 C   -9.655583    0.541449    0.100064
 C   -6.963950    1.079190    0.663339
 C   -5.641304    1.328742    0.907580
 C   -4.632040    0.851124    0.036696
 C   -3.261468    1.101633    0.290169
 H    1.553325    2.902039    1.058323
 H    2.644945    2.060983    3.055351
 H    2.389904    0.673560    1.980128
 H    4.000704    1.384871    2.119917
 H    3.382084    4.284539    1.994051
 H    4.547608    3.518130    0.924330
 H    3.817005    5.758342    0.052904
 H    2.140039    5.186097   -0.023233
 H    3.361001    4.475527   -1.079881
 H    2.818545    0.237701   -2.138571
 H    4.485524    1.854579   -2.888361
 H    4.790898    0.242903   -3.530895
 H    6.929272    0.931689   -2.922687
 H    7.596664    2.114541   -0.883338
 H    6.318293    3.024049   -1.708625
 H    5.936122    2.060616   -0.265530
 H    7.607688   -0.555845   -1.054103
 H    3.975160   -1.814563   -2.123307
 H    7.129875   -2.670297   -0.056415
 H    5.546472   -4.264893    0.839257
 H    3.262250   -3.460711    1.199818
 H    3.447034   -5.227203   -0.553501
 H    2.019826   -4.211670   -0.787325
 H    3.452841   -3.989681   -1.811078
 H    3.637491   -1.163267    0.820682
 H    1.663756   -0.428798   -0.389712
 H    1.472221   -1.984746   -1.172172
 H    1.496381   -1.680251    1.873778
 H    0.883602   -3.037540    0.964562
 H   -0.892867   -1.602361   -0.027121
 H   -0.418650    0.568108    4.256301
 H    0.923021   -0.239206    3.451444
 H   -1.748288   -1.354637    4.086797
 H    0.286467   -2.182551    4.807023
 H   -2.335883   -1.450729    1.858855
 H   -1.400700   -2.946096    2.019542
 H   -0.192566    0.535116   -1.069566
 H   -0.612651    1.911912   -0.060475
 H   -1.898364   -0.504912   -2.351866
 H   -4.248564   -1.000748   -2.813736
 H   -6.382438   -0.441284   -3.501333
 H   -7.909091   -0.859265   -2.719367
 H   -6.644610   -2.648203   -1.791743
 H  -10.601391    0.211345   -0.331495
 H   -9.655228    1.636649    0.167937
 H   -9.552305    0.115001    1.106129
 H   -7.711743    1.453596    1.352285
 H   -5.351247    1.901720    1.784441
 H   -2.982898    1.682215    1.167273
