93 
1xdd_ligand_xtb.xyz
 O    1.983620    2.054115   -1.181202
 C    2.791942    1.888318   -0.298786
 C    2.788838    2.656075    1.005789
 C    3.496260    1.897810    2.124368
 C    3.442289    4.029183    0.764078
 C    2.576540    4.939261   -0.096692
 O    3.793362    1.011297   -0.375770
 C    3.881589    0.208941   -1.557002
 C    4.952412    0.748943   -2.505699
 C    6.363079    0.694278   -1.913785
 C    6.665158    1.903469   -1.020345
 C    6.572295   -0.565434   -1.135924
 C    5.616429   -1.426590   -0.782144
 C    4.169280   -1.248357   -1.172161
 C    5.936517   -2.621143   -0.024402
 C    5.014651   -3.468054    0.425934
 C    3.544874   -3.260110    0.218921
 C    3.056042   -4.199548   -0.890778
 C    3.265040   -1.767909   -0.037350
 C    1.781458   -1.470707   -0.284413
 C    0.880033   -1.950458    0.853500
 C   -0.499396   -1.274021    0.822463
 N   -0.429419    0.176820    0.860643
 C   -0.292458    0.844431    2.022311
 O   -0.320751    2.060980    2.100920
 C   -0.036767   -0.010825    3.250562
 C   -0.883727   -1.294649    3.337182
 O   -0.130432   -2.363768    3.881551
 C   -1.400165   -1.744617    1.966721
 C   -0.840499    0.907804   -0.329071
 C   -2.297196    0.664499   -0.620104
 C   -2.697517    0.002406   -1.794934
 C   -4.014531   -0.260774   -2.046254
 C   -5.019514    0.120726   -1.129378
 C   -6.393558   -0.131272   -1.360505
 C   -6.840777   -0.815969   -2.631259
 O   -6.337468   -2.132309   -2.766124
 C   -7.332379    0.245644   -0.413053
 O   -8.641828   -0.046681   -0.685468
 C   -9.638384    0.374760    0.212602
 C   -6.924452    0.898233    0.766703
 C   -5.603753    1.160059    0.992827
 C   -4.617977    0.781628    0.062732
 C   -3.252617    1.040527    0.288108
 H    1.740580    2.817741    1.278908
 H    3.380496    2.436253    3.062061
 H    3.067016    0.905821    2.242164
 H    4.557075    1.787918    1.912334
 H    3.608747    4.500841    1.735099
 H    4.418411    3.886076    0.293043
 H    3.085550    5.882258   -0.284336
 H    1.635056    5.146406    0.406318
 H    2.352738    4.467567   -1.049849
 H    2.913751    0.274201   -2.071264
 H    4.700057    1.776074   -2.777047
 H    4.914778    0.142159   -3.412646
 H    7.082359    0.712203   -2.743621
 H    7.688560    1.854996   -0.654052
 H    6.542157    2.829107   -1.579263
 H    5.992425    1.912861   -0.168020
 H    7.591660   -0.750182   -0.821838
 H    3.979173   -1.846335   -2.071803
 H    6.986054   -2.803665    0.162366
 H    5.303777   -4.362470    0.959942
 H    3.028512   -3.548278    1.141499
 H    3.305360   -5.226159   -0.630343
 H    1.978997   -4.134162   -1.016138
 H    3.536502   -3.969391   -1.838230
 H    3.563674   -1.232073    0.872261
 H    1.658228   -0.392155   -0.359744
 H    1.459991   -1.910596   -1.230644
 H    1.369430   -1.755238    1.805213
 H    0.715890   -3.026595    0.790822
 H   -0.982993   -1.538643   -0.124628
 H   -0.197585    0.624138    4.124170
 H    1.020538   -0.286566    3.240355
 H   -1.751557   -1.105177    3.988642
 H    0.180745   -2.115212    4.758590
 H   -2.399448   -1.336267    1.804533
 H   -1.464082   -2.832400    1.973272
 H   -0.220644    0.612038   -1.177578
 H   -0.659850    1.965785   -0.123072
 H   -1.943330   -0.295229   -2.510020
 H   -4.293875   -0.785923   -2.944814
 H   -6.466696   -0.271063   -3.502839
 H   -7.935756   -0.822363   -2.669732
 H   -6.633730   -2.646647   -2.007956
 H  -10.581442    0.060928   -0.233046
 H   -9.642038    1.462791    0.331869
 H   -9.529654   -0.101101    1.192857
 H   -7.656073    1.197070    1.500456
 H   -5.299788    1.665567    1.898009
 H   -2.961211    1.550024    1.195849
