91 
1xdg_ligand_xtb.xyz
 C    1.413998    5.531705    0.583035
 O    2.302805    5.075840    1.574876
 C    3.204609    4.096205    1.228842
 C    4.093095    3.728155    2.255971
 O    4.016626    4.326035    3.473441
 C    5.047526    2.755590    2.017773
 C    5.124964    2.142588    0.777183
 C    3.290941    3.482555   -0.005568
 C    4.251976    2.499289   -0.236555
 C    4.277471    1.811971   -1.577328
 N    3.185453    0.865223   -1.734863
 C    3.171880   -0.347909   -0.936125
 C    2.357424   -0.135045    0.348110
 C    2.428585   -1.328398    1.290656
 N    1.540834   -1.250924    2.299002
 C    1.472638   -2.235957    3.349950
 O    3.209352   -2.250964    1.151980
 C    2.627191   -1.497020   -1.793942
 C    1.481925   -1.009842   -2.695704
 O    1.062651    0.322673   -2.387485
 C    2.021135    1.278162   -2.289588
 O    1.803797    2.400275   -2.681485
 C    0.224144   -1.886290   -2.664105
 C   -0.361856   -2.069998   -1.262977
 C   -1.842129   -2.472082   -1.273879
 C   -2.375967   -2.748665    0.144497
 C   -3.867135   -2.975629    0.093144
 C   -4.372064   -3.665686   -1.078143
 C   -3.604190   -4.004028   -2.110832
 C   -2.141458   -3.681619   -2.178504
 C   -1.334525   -4.943058   -1.844360
 C   -4.685668   -2.607870    1.080797
 C   -4.274185   -1.900541    2.333082
 C   -4.883860   -0.492856    2.349793
 C   -2.749714   -1.880140    2.481662
 C   -2.025403   -1.652179    1.154188
 O   -2.359876   -0.369281    0.606658
 C   -1.623141    0.668753    0.973721
 O   -0.685061    0.598334    1.736756
 C   -2.059971    1.944130    0.286716
 C   -2.293102    3.027040    1.338868
 C   -0.942506    2.312624   -0.703108
 C   -1.281558    3.489632   -1.606737
 H    1.952319    5.968158   -0.263237
 H    0.806621    6.298081    1.062552
 H    0.769587    4.725887    0.223228
 H    3.301807    4.976503    3.437918
 H    5.721678    2.489035    2.815373
 H    5.872566    1.382759    0.606682
 H    2.619523    3.740545   -0.808665
 H    5.215609    1.266516   -1.710789
 H    4.166421    2.547583   -2.377697
 H    4.201366   -0.576453   -0.646970
 H    2.761691    0.729299    0.881630
 H    1.316705    0.084496    0.110133
 H    0.898657   -0.469761    2.340318
 H    0.481950   -2.694265    3.387428
 H    2.218575   -3.000060    3.135466
 H    1.689146   -1.781286    4.318381
 H    3.431184   -1.884252   -2.420534
 H    2.307491   -2.300356   -1.135106
 H    1.841235   -0.985800   -3.736704
 H    0.475954   -2.847894   -3.111704
 H   -0.516791   -1.393334   -3.296482
 H   -0.276902   -1.111254   -0.752828
 H    0.215061   -2.805935   -0.700149
 H   -2.413555   -1.627224   -1.676574
 H   -1.900948   -3.664160    0.517752
 H   -5.425909   -3.907662   -1.075428
 H   -4.018009   -4.547824   -2.948178
 H   -1.902200   -3.402611   -3.210158
 H   -1.576944   -5.311524   -0.850960
 H   -1.578430   -5.726903   -2.558356
 H   -0.266232   -4.754520   -1.898064
 H   -5.746946   -2.796857    0.985839
 H   -4.690037   -2.445606    3.190913
 H   -4.591848    0.037482    3.254145
 H   -5.969526   -0.555582    2.322917
 H   -4.550995    0.073411    1.484768
 H   -2.452670   -1.102802    3.188909
 H   -2.410848   -2.841193    2.873919
 H   -0.945444   -1.659137    1.346222
 H   -2.983012    1.741536   -0.263384
 H   -1.380697    3.191985    1.907437
 H   -2.591842    3.958303    0.866773
 H   -3.079257    2.724100    2.027766
 H   -0.033813    2.527727   -0.135465
 H   -0.734727    1.449972   -1.338680
 H   -0.467212    3.629896   -2.313139
 H   -2.193557    3.290802   -2.165096
 H   -1.414646    4.409381   -1.041837
