17 
1xge_ligand_aiqm1.xyz
 O    1.854786    2.253527    0.244052
 C    1.288712    1.202733    0.060270
 N    0.331914    1.000761   -0.909967
 N    1.594399    0.066613    0.810129
 C    1.167082   -1.232206    0.593903
 O    1.615159   -2.153770    1.231132
 C    0.143200   -1.391096   -0.506477
 C   -0.600813   -0.093244   -0.797931
 C   -1.719842    0.139329    0.220257
 O   -2.345188   -0.740773    0.743691
 O   -1.953518    1.448265    0.413159
 H   -0.033805    1.872675   -1.257206
 H    2.327258    0.189246    1.490685
 H    0.680206   -1.706099   -1.402749
 H   -0.540927   -2.181545   -0.215876
 H   -1.121270   -0.186950   -1.754081
 H   -2.687353    1.512636    1.037109
