17 
1xge_ligand_ani-2x.xyz
 O    1.864742    2.256057    0.273414
 C    1.315086    1.198825    0.057099
 N    0.339397    1.014641   -0.899412
 N    1.650653    0.038524    0.761735
 C    1.145941   -1.244650    0.599853
 O    1.528794   -2.160605    1.291103
 C    0.144218   -1.388436   -0.528568
 C   -0.599340   -0.087356   -0.797456
 C   -1.692592    0.147946    0.251759
 O   -2.209972   -0.714759    0.916483
 O   -2.063686    1.439270    0.312998
 H   -0.028434    1.891542   -1.242908
 H    2.357723    0.159837    1.475944
 H    0.694644   -1.687079   -1.427827
 H   -0.551313   -2.188894   -0.271411
 H   -1.130364   -0.160528   -1.755809
 H   -2.765497    1.485765    0.983102
