17 
1xge_ligand_xtb.xyz
 O    1.862173    2.264710    0.032042
 C    1.244108    1.234775   -0.056245
 N    0.293181    0.998312   -0.999068
 N    1.493112    0.161560    0.800844
 C    1.011538   -1.117613    0.712138
 O    1.279860   -1.957466    1.531483
 C    0.163332   -1.368846   -0.520728
 C   -0.620546   -0.111221   -0.906147
 C   -1.732973    0.099749    0.132816
 O   -2.714049   -0.584767    0.199071
 O   -1.473067    1.111429    0.956746
 H    0.006626    1.813807   -1.519481
 H    2.138629    0.358709    1.557243
 H    0.839285   -1.644071   -1.334336
 H   -0.510305   -2.204732   -0.332024
 H   -1.106910   -0.264228   -1.875532
 H   -2.173993    1.209994    1.621277
