53 
1xka_ligand_aiqm1.xyz
 C    0.951413   -4.268662    2.251105
 O    1.564411   -5.159954    1.722140
 O   -0.025418   -4.489264    3.151705
 N    0.531186    2.339672   -2.139272
 C    0.874112    1.269431   -2.879336
 C    1.812018    0.324235   -2.505656
 C    2.476203    0.446351   -1.273790
 C    2.134124    1.568864   -0.498579
 C    1.180108    2.460049   -0.972844
 N    3.426431   -0.465856   -0.890622
 C    1.132587   -2.791644    1.982891
 C    2.541900   -2.492936    1.449169
 C    2.870038   -1.001251    1.500547
 C    3.919876   -0.557512    0.475006
 N   -2.275514    3.583573   -2.576821
 N   -4.133474    4.566043   -1.658870
 C   -3.173199    3.720975   -1.545782
 C   -1.758129   -1.367159   -0.890592
 C   -1.090619   -2.568171   -1.111168
 C   -0.173576   -3.050848   -0.182196
 C    0.064673   -2.335103    0.996916
 C   -0.633736   -1.151010    1.225698
 C   -1.532166   -0.637766    0.282191
 C   -3.229073    2.302850    1.964893
 C   -2.627870    1.059989    1.776816
 C   -2.197250    0.669137    0.503805
 C   -2.377196    1.550653   -0.564883
 C   -2.976979    2.796782   -0.388475
 C   -3.405590    3.166887    0.890385
 H   -0.121742   -5.446880    3.228824
 H    0.364987    1.160620   -3.829970
 H    2.032818   -0.506479   -3.166751
 H    2.599041    1.746722    0.461574
 H    0.920712    3.320374   -0.364719
 H    3.488402   -1.299104   -1.448617
 H    0.975459   -2.270580    2.930368
 H    2.600088   -2.873295    0.426642
 H    3.281537   -3.062742    2.020724
 H    1.968329   -0.415517    1.321137
 H    3.216865   -0.736748    2.502756
 H    4.317677    0.417720    0.761427
 H    4.761294   -1.251158    0.466676
 H   -1.328189    3.269667   -2.382430
 H   -2.372094    4.290695   -3.286273
 H   -4.777183    4.479156   -0.878905
 H   -2.465658   -0.997143   -1.621891
 H   -1.283659   -3.129497   -2.016705
 H    0.360218   -3.974649   -0.372256
 H   -0.454380   -0.599474    2.142956
 H   -3.561524    2.596517    2.952812
 H   -2.503985    0.385202    2.615654
 H   -2.030273    1.270316   -1.550667
 H   -3.858128    4.138316    1.045751
