38 
1xm6_ligand_ani-2x.xyz
 O   -5.963733    1.345790   -0.515139
 C   -4.999089    0.628706   -0.524893
 O   -3.951588    0.772014    0.324223
 N   -4.752363   -0.448927   -1.348475
 C   -3.348273   -0.790171   -1.313495
 C   -2.952216   -0.229551    0.076490
 C   -3.095186   -1.299359    1.154060
 C   -1.578191    0.414025    0.084423
 C   -1.375158    1.698019    0.579260
 C   -0.096610    2.248473    0.604170
 C    1.001609    1.527161    0.143916
 O    2.277596    2.001390    0.123435
 C    2.493805    3.319240    0.580819
 C    0.807788    0.220379   -0.344403
 C   -0.476471   -0.305724   -0.378188
 O    1.807112   -0.541558   -0.874454
 C    3.011120   -0.728054   -0.131017
 C    3.544253   -2.110036   -0.474213
 C    4.830207   -2.438045    0.281733
 H   -5.264961   -0.462910   -2.217928
 H   -3.189179   -1.871296   -1.385045
 H   -2.778010   -0.298081   -2.115367
 H   -2.327962   -2.069175    1.021719
 H   -4.080032   -1.772651    1.088632
 H   -2.982947   -0.852374    2.145319
 H   -2.218213    2.276461    0.943048
 H    0.035391    3.253979    0.989844
 H    3.562883    3.506036    0.473502
 H    1.934639    4.048947   -0.019445
 H    2.209115    3.426204    1.635443
 H   -0.589927   -1.309219   -0.783115
 H    2.803105   -0.642770    0.944925
 H    3.727853    0.055346   -0.405287
 H    2.767623   -2.850353   -0.244452
 H    3.713504   -2.155696   -1.556762
 H    5.619349   -1.710545    0.055624
 H    4.666286   -2.424605    1.366153
 H    5.206870   -3.431070    0.015142
