38 
1xm6_ligand_xtb.xyz
 O   -5.805890    1.625501   -1.075190
 C   -4.911331    0.848139   -0.903664
 O   -4.048147    0.902077    0.128194
 N   -4.611610   -0.233237   -1.675844
 C   -3.384543   -0.868329   -1.279068
 C   -3.107566   -0.176448    0.082154
 C   -3.398458   -1.109309    1.261789
 C   -1.695159    0.360026    0.179475
 C   -1.442593    1.666270    0.555678
 C   -0.138019    2.119673    0.645569
 C    0.945333    1.295531    0.371361
 O    2.248238    1.723820    0.435055
 C    2.505206    3.052646    0.816665
 C    0.696467   -0.041740    0.002952
 C   -0.621737   -0.476483   -0.085905
 O    1.610986   -0.998936   -0.308102
 C    2.999014   -0.807908   -0.094647
 C    3.686693   -2.137047   -0.392873
 C    5.193874   -2.035837   -0.203663
 H   -5.025380   -0.358928   -2.582018
 H   -3.515515   -1.947881   -1.164097
 H   -2.574949   -0.678664   -1.994597
 H   -2.688318   -1.930829    1.272292
 H   -4.410765   -1.500036    1.185749
 H   -3.308318   -0.549660    2.188915
 H   -2.262325    2.331365    0.771503
 H    0.027181    3.145162    0.932814
 H    3.589860    3.151268    0.802594
 H    2.068854    3.767467    0.111853
 H    2.136794    3.262236    1.825896
 H   -0.775236   -1.504295   -0.375786
 H    3.188332   -0.509869    0.942596
 H    3.385504   -0.026683   -0.758396
 H    3.275307   -2.900689    0.269101
 H    3.455192   -2.426328   -1.419053
 H    5.613027   -1.284517   -0.868998
 H    5.432921   -1.757523    0.820228
 H    5.667075   -2.990006   -0.420329
