41 
1xn0_ligand_aiqm1.xyz
 O    5.602628    0.251732    1.663189
 C    4.707194   -0.446174    1.233272
 C    3.413771   -0.828414    1.942819
 N    4.667134   -1.028815    0.003074
 C    3.531775   -1.907971   -0.206828
 C    2.506923   -1.366667    0.821534
 C    1.603782   -0.316009    0.210464
 C    0.314329   -0.674004   -0.195672
 C   -0.548720    0.232780   -0.790380
 C   -0.125759    1.560914   -0.996212
 C    1.148590    1.932103   -0.582383
 C    2.006547    1.003041    0.016119
 O   -1.024090    2.397501   -1.585583
 C   -0.618662    3.738866   -1.782528
 O   -1.781901   -0.194467   -1.195320
 C   -2.894385    0.359888   -0.449039
 C   -4.125436   -0.397829   -0.906146
 C   -4.027342   -1.746133   -0.176299
 C   -3.237991   -1.454140    1.127649
 C   -2.804436    0.023203    1.036148
 H    3.011450    0.023599    2.487711
 H    3.653421   -1.611897    2.667640
 H    5.484801   -1.009697   -0.581377
 H    3.784890   -2.951397    0.014871
 H    3.168511   -1.849449   -1.231429
 H    1.887997   -2.189407    1.179194
 H   -0.055834   -1.687124   -0.062147
 H    1.493998    2.946636   -0.719821
 H    2.990329    1.334388    0.319504
 H   -1.453145    4.235068   -2.268506
 H   -0.404773    4.231013   -0.830037
 H    0.262625    3.797486   -2.424904
 H   -2.943150    1.435063   -0.633384
 H   -5.005449    0.157964   -0.570992
 H   -4.168989   -0.494806   -1.990906
 H   -3.484030   -2.463897   -0.789963
 H   -5.010960   -2.169006    0.025349
 H   -2.366860   -2.106057    1.192647
 H   -3.840559   -1.634623    2.017987
 H   -1.807667    0.205613    1.438321
 H   -3.509956    0.661425    1.572061
