31 
1xo2_ligand_xtb.xyz
 C   -3.152119   37.240062  140.490465
 C   -2.056849   36.916965  141.245281
 C   -0.768256   36.955126  140.696165
 C   -0.608085   37.329887  139.356719
 C   -1.724713   37.659445  138.586602
 C   -2.988172   37.615326  139.148046
 C    0.409957   36.619510  141.467266
 C    1.679587   36.710729  140.742436
 C    1.740377   37.086687  139.431130
 C    2.939691   37.212463  138.610492
 C    4.215674   36.946606  139.108333
 C    5.328042   37.076661  138.301147
 C    5.204612   37.474081  136.977729
 C    3.924419   37.743250  136.469811
 C    2.814188   37.613812  137.274245
 O    0.592906   37.391719  138.754930
 O    0.431647   36.273367  142.649550
 O    3.853736   38.133730  135.152976
 O    6.297820   37.600066  136.190642
 O    2.746655   36.388047  141.505406
 O   -4.098077   37.925594  138.442730
 H   -4.149580   37.215811  140.897214
 H   -2.152883   36.625014  142.279403
 H   -1.582416   37.946401  137.554554
 H    4.338135   36.637060  140.130463
 H    6.314994   36.872058  138.682787
 H    1.835908   37.824880  136.867670
 H    2.933884   38.290109  134.915276
 H    6.005091   37.883517  135.312991
 H    2.352097   36.170361  142.381854
 H   -3.866968   38.167455  137.537190
