31 
1xo2_ligand_aiqm1.xyz
 C   -3.162379   37.295927  140.520275
 C   -2.077894   36.824624  141.223335
 C   -0.782755   36.862007  140.671006
 C   -0.619226   37.388436  139.388943
 C   -1.703478   37.872362  138.656482
 C   -2.963627   37.822302  139.229861
 C    0.382989   36.376906  141.382487
 C    1.653184   36.509035  140.675866
 C    1.728139   37.040979  139.430878
 C    2.935771   37.246971  138.612486
 C    4.200864   37.389598  139.189649
 C    5.322258   37.584471  138.387963
 C    5.200354   37.638607  137.006878
 C    3.936374   37.498316  136.427069
 C    2.816335   37.310516  137.214244
 O    0.588631   37.452469  138.781768
 O    0.377186   35.877710  142.507633
 O    3.914600   37.566771  135.055739
 O    6.296627   37.826774  136.232101
 O    2.721049   36.050243  141.368967
 O   -4.065215   38.275596  138.580217
 H   -4.161770   37.275160  140.928768
 H   -2.189732   36.413274  142.217138
 H   -1.533648   38.275555  137.665847
 H    4.310060   37.342444  140.261574
 H    6.306781   37.694092  138.822423
 H    1.842087   37.209796  136.748653
 H    3.014361   37.455062  134.744536
 H    6.011125   37.830333  135.312161
 H    2.327842   35.724664  142.198203
 H   -3.815596   38.614802  137.718349
