50 
1xom_ligand_aiqm1.xyz
 O   13.636133    6.105002   19.237470
 C   12.503772    6.098223   18.500275
 O   11.440473    5.956894   19.038160
 C   12.626554    6.243298   16.991374
 C   13.980382    6.706857   16.460917
 C   13.926160    6.858751   14.942763
 C   12.218957    4.913598   16.336221
 C   12.166043    5.065373   14.820283
 C   13.520736    5.530365   14.243107
 C   14.533751    4.507538   14.589817
 N   15.313237    3.707733   14.897396
 C   13.515281    5.709051   12.724425
 C   12.347238    5.718133   11.979932
 C   12.390761    5.945215   10.592663
 C   13.598605    6.153470    9.949696
 O   13.749065    6.386520    8.622376
 C   12.568056    6.399388    7.843535
 C   14.795520    6.127190   10.701431
 C   14.736310    5.909403   12.065788
 O   15.938314    6.324392    9.995747
 C   17.192289    6.267482   10.694222
 C   18.269302    6.259960    9.623410
 C   18.324515    7.716916    9.141005
 C   17.832475    8.570284   10.341108
 C   17.456545    7.567840   11.449748
 H   14.402218    6.215784   18.667018
 H   11.868876    6.986610   16.720172
 H   14.754874    5.976277   16.721982
 H   14.270319    7.658986   16.915842
 H   14.891429    7.197969   14.560091
 H   13.183682    7.614798   14.675367
 H   11.244754    4.605246   16.716728
 H   12.939519    4.138131   16.616947
 H   11.416902    5.819065   14.565376
 H   11.863321    4.127158   14.351845
 H   11.386374    5.550267   12.442286
 H   11.464225    5.949300   10.036665
 H   12.050641    5.437660    7.887542
 H   11.885483    7.189724    8.167399
 H   12.884028    6.592280    6.823527
 H   15.656599    5.876523   12.629200
 H   17.214648    5.381818   11.333350
 H   18.050771    5.548421    8.827527
 H   19.209900    5.973512   10.100057
 H   17.660527    7.855488    8.290000
 H   19.328614    7.996589    8.823517
 H   16.962425    9.155798   10.048598
 H   18.593952    9.270773   10.683697
 H   18.298799    7.404273   12.125800
 H   16.601546    7.889972   12.043400
