50 
1xuc_ligand_ani-2x.xyz
 C  -12.074493   26.956803   45.775726
 C  -11.538706   27.921610   46.611884
 C  -10.249412   27.681152   47.055513
 N  -11.403414   25.860853   45.413016
 C   -3.865454   28.065414   52.480268
 C  -18.131748   22.311446   42.351859
 C   -9.590823   28.681641   47.970825
 C   -7.539116   29.174797   49.216912
 C   -7.077679   28.442848   50.457071
 C  -13.474390   27.140729   45.247447
 C  -16.662712   24.189443   43.172455
 C  -16.847753   23.323343   45.792760
 C   -7.963142   27.663642   51.198597
 C   -7.524664   27.023330   52.352099
 C   -6.204824   27.149407   52.768589
 C   -5.756887   28.562129   50.886115
 N   -9.556224   26.593884   46.708449
 C  -10.172691   25.736044   45.900807
 N   -8.336002   28.342027   48.344423
 N  -13.895110   26.137240   44.444199
 C  -15.205893   26.135447   43.833985
 C  -15.998704   24.892451   44.173051
 C  -17.422835   23.053332   43.457297
 C  -17.507711   22.629139   44.782464
 C  -16.092316   24.448846   45.491928
 C   -5.300182   27.923151   52.036836
 O  -14.140956   28.119549   45.548201
 O  -10.175020   29.693443   48.328210
 H  -12.092507   28.807503   46.900129
 H   -3.801134   28.512339   53.479059
 H   -3.365534   27.091029   52.525980
 H   -3.299971   28.700057   51.792164
 H  -18.851430   22.959690   41.838588
 H  -17.421348   21.950169   41.599343
 H  -18.678269   21.446073   42.737345
 H   -6.667943   29.559223   48.670202
 H   -8.173311   30.030264   49.472385
 H  -16.588248   24.534912   42.140504
 H  -16.922499   22.980768   46.822219
 H   -8.995450   27.560282   50.872532
 H   -8.218557   26.417967   52.930743
 H   -5.868512   26.643401   53.671742
 H   -5.064264   29.172448   50.306501
 H   -9.616484   24.845986   45.611337
 H   -7.957810   27.476073   47.984361
 H  -13.253110   25.375699   44.269788
 H  -15.109462   26.229391   42.744072
 H  -15.705801   27.037899   44.201459
 H  -18.096396   21.746554   45.026608
 H  -15.573096   24.988735   46.280350
