76 
1xuo_ligand_aiqm1.xyz
 O   -3.649950   -0.054702   -4.741615
 C   -2.757508   -0.625435   -4.134475
 N   -1.745080   -1.300996   -4.715992
 C   -1.643503   -1.465893   -6.151979
 C   -2.666561   -0.621189   -2.597458
 C   -3.986802   -0.195607   -1.946882
 C   -3.878849   -0.142111   -0.442688
 C   -3.654031   -1.277162    0.300344
 C   -3.473119   -1.224440    1.706537
 C   -3.224314   -2.393448    2.474080
 C   -3.020528   -2.315381    3.829351
 C   -3.062974   -1.059162    4.486004
 C   -3.308037    0.085290    3.768712
 C   -3.518315    0.030323    2.366425
 C   -3.766702    1.192495    1.594435
 C   -3.944766    1.108053    0.237166
 N   -1.520093    0.186041   -2.145754
 C   -1.587926    1.634156   -2.372299
 C   -0.925799    2.480610   -1.284610
 C    0.568817    2.574225   -1.497782
 O    1.107034    3.638899   -1.755742
 N    1.259426    1.397706   -1.480699
 C    0.722481    0.136877   -0.969259
 C    0.306646    0.195014    0.531457
 C    0.963232   -0.892925    1.392412
 C    0.475858   -2.295105    1.031099
 C    0.696350   -0.614447    2.870394
 C   -0.390443   -0.504898   -1.816443
 O   -0.279438   -1.696877   -2.093798
 C    2.693245    1.439647   -1.787203
 C    3.558283    1.426824   -0.548537
 C    4.229141    0.309917   -0.117485
 C    4.979866    0.357780    1.082488
 C    5.677230   -0.764516    1.599060
 C    6.376231   -0.666581    2.774326
 C    6.408698    0.561529    3.482615
 C    5.742406    1.659775    3.002440
 C    5.009613    1.584363    1.791111
 N    4.357234    2.700505    1.355030
 C    3.669095    2.607143    0.238002
 H   -1.075335   -1.741754   -4.102600
 H   -0.692240   -1.082513   -6.520823
 H   -1.734234   -2.514724   -6.435067
 H   -2.455638   -0.904169   -6.604956
 H   -2.436888   -1.636925   -2.273339
 H   -4.740954   -0.918550   -2.259302
 H   -4.315505    0.762531   -2.345445
 H   -3.591043   -2.246157   -0.187305
 H   -3.186230   -3.351858    1.969151
 H   -2.822791   -3.212127    4.401780
 H   -2.899585   -1.006950    5.554225
 H   -3.340760    1.047515    4.267377
 H   -3.815176    2.155294    2.090376
 H   -4.135806    2.005459   -0.341272
 H   -1.153067    1.871091   -3.350219
 H   -2.637213    1.895472   -2.434463
 H   -1.296215    3.500099   -1.367015
 H   -1.180571    2.101147   -0.298465
 H    1.534039   -0.585221   -1.052814
 H    0.604041    1.170276    0.926950
 H   -0.778716    0.125912    0.639421
 H    2.044978   -0.847767    1.230119
 H   -0.602028   -2.367174    1.204884
 H    0.665067   -2.544486   -0.013161
 H    0.966550   -3.041208    1.658349
 H    1.020907    0.387363    3.152128
 H   -0.374617   -0.703939    3.088163
 H    1.228091   -1.333791    3.493164
 H    2.863904    2.348464   -2.356489
 H    2.929995    0.581280   -2.422620
 H    4.183739   -0.620972   -0.677250
 H    5.646912   -1.699454    1.051137
 H    6.905922   -1.525875    3.164760
 H    6.965199    0.627487    4.408224
 H    5.753321    2.607241    3.525089
 H    3.155399    3.503190   -0.095878
