76 
1xuo_ligand_xtb.xyz
 O   -3.614195   -0.042007   -4.724774
 C   -2.761244   -0.670194   -4.134538
 N   -1.770525   -1.358151   -4.730577
 C   -1.613894   -1.421154   -6.162933
 C   -2.659681   -0.729416   -2.603278
 C   -3.974176   -0.337785   -1.914089
 C   -3.757659   -0.181925   -0.434904
 C   -3.469374   -1.272270    0.345969
 C   -3.195784   -1.139915    1.721562
 C   -2.897032   -2.252936    2.536818
 C   -2.613894   -2.089883    3.863773
 C   -2.616296   -0.808458    4.438268
 C   -2.908846    0.288743    3.677500
 C   -3.208297    0.153877    2.305812
 C   -3.525500    1.258937    1.489747
 C   -3.795870    1.093620    0.160331
 N   -1.540014    0.105748   -2.165558
 C   -1.619262    1.516247   -2.493865
 C   -1.065704    2.441771   -1.415352
 C    0.430436    2.608183   -1.586549
 O    0.929216    3.690700   -1.825744
 N    1.157581    1.464934   -1.555841
 C    0.690701    0.196192   -1.029357
 C    0.297811    0.275489    0.471829
 C    1.059950   -0.718172    1.359207
 C    0.534714   -2.138415    1.176816
 C    0.945236   -0.289923    2.820633
 C   -0.412363   -0.535508   -1.795692
 O   -0.286446   -1.742811   -1.959567
 C    2.597458    1.570268   -1.762991
 C    3.342454    1.413246   -0.468265
 C    4.196492    0.369245   -0.226273
 C    4.800738    0.240179    1.042070
 C    5.681571   -0.806314    1.376985
 C    6.209304   -0.887416    2.635762
 C    5.880302    0.068836    3.609901
 C    5.029239    1.098017    3.316697
 C    4.471260    1.210486    2.027692
 N    3.639544    2.240469    1.765189
 C    3.115228    2.335569    0.580090
 H   -1.101380   -1.849445   -4.154027
 H   -0.655809   -0.994846   -6.466394
 H   -1.670843   -2.453900   -6.510509
 H   -2.423749   -0.844643   -6.607211
 H   -2.395794   -1.749812   -2.307569
 H   -4.692765   -1.135334   -2.113750
 H   -4.375727    0.575713   -2.353599
 H   -3.444361   -2.261603   -0.089082
 H   -2.897082   -3.237360    2.090309
 H   -2.383206   -2.945732    4.480783
 H   -2.385124   -0.698551    5.487518
 H   -2.914439    1.276986    4.114899
 H   -3.550698    2.243346    1.935220
 H   -4.048631    1.949800   -0.448482
 H   -1.090065    1.703917   -3.438653
 H   -2.670295    1.745048   -2.665182
 H   -1.503498    3.433868   -1.534873
 H   -1.322166    2.067074   -0.426229
 H    1.545552   -0.484260   -1.106170
 H    0.518900    1.285638    0.823435
 H   -0.772252    0.097453    0.599674
 H    2.119868   -0.695122    1.083293
 H   -0.484105   -2.208162    1.551610
 H    0.534841   -2.423758    0.128442
 H    1.152766   -2.843259    1.728057
 H    1.394283    0.689850    2.969681
 H   -0.098949   -0.247287    3.123607
 H    1.460814   -1.000991    3.461550
 H    2.775181    2.564394   -2.183369
 H    2.910982    0.809044   -2.484544
 H    4.412500   -0.365202   -0.992268
 H    5.928468   -1.541178    0.623491
 H    6.884679   -1.690936    2.890435
 H    6.308989   -0.017052    4.597541
 H    4.764466    1.843760    4.049561
 H    2.465068    3.184935    0.409900
