71 
1xxe_ligand_xtb.xyz
 C    3.457776    0.224970    0.341593
 C    2.920178    1.631373    0.653599
 C    3.822168    2.653450   -0.067770
 C    4.924400    0.120366    0.761204
 C    5.695691    1.231667    0.036191
 O    5.169039    2.501643    0.336528
 O    2.692235   -0.768181    1.025399
 O    1.301036   -0.918394   -0.728363
 C    1.604516   -1.232924    0.393051
 C    0.843615   -2.204078    1.257857
 C    0.268326   -1.502414    2.496332
 C   -0.549941   -0.253673    2.164906
 C   -1.732991   -0.525984    1.238358
 C   -2.588363    0.726838    1.061092
 C   -3.693373    0.563360    0.017600
 C   -4.777591   -0.429770    0.431031
 C   -5.918401   -0.478750   -0.582979
 C   -7.005282   -1.467136   -0.166583
 C   -8.093524   -1.659428   -1.224240
 C   -8.888719   -0.400036   -1.571991
 C   -9.661934    0.180378   -0.390069
 C  -10.552754    1.340056   -0.819311
 C    5.498226   -1.273904    0.467092
 C    5.202667   -1.710547   -0.951650
 O    5.556309   -1.117791   -1.957986
 N    4.497814   -2.847684   -1.054546
 O    4.172092   -3.321638   -2.326475
 O    1.569953    1.778153    0.318156
 C    3.414546    4.092105    0.265415
 O    4.137919    5.022295   -0.489678
 H    3.357835    0.047372   -0.739780
 H    2.974520    1.808266    1.734489
 H    3.741421    2.496500   -1.157463
 H    4.983327    0.299987    1.839551
 H    5.673791    1.048177   -1.046290
 H    6.733691    1.257921    0.373241
 H    0.047730   -2.641277    0.656501
 H    1.522112   -2.995641    1.581522
 H    1.094389   -1.216756    3.150494
 H   -0.356890   -2.219190    3.033530
 H    0.095084    0.497470    1.704984
 H   -0.923427    0.165757    3.102578
 H   -2.337805   -1.334673    1.653799
 H   -1.367031   -0.838250    0.259260
 H   -1.935013    1.546968    0.754023
 H   -3.035036    1.001605    2.019899
 H   -3.250178    0.241653   -0.927549
 H   -4.158631    1.537683   -0.152191
 H   -5.175846   -0.142536    1.407498
 H   -4.346487   -1.427696    0.528335
 H   -5.520858   -0.769316   -1.558467
 H   -6.345754    0.520431   -0.682044
 H   -7.455561   -1.137609    0.771405
 H   -6.541013   -2.439067    0.021685
 H   -7.628352   -2.037314   -2.138429
 H   -8.788941   -2.424697   -0.869240
 H   -9.599949   -0.655791   -2.362054
 H   -8.218150    0.360844   -1.974902
 H   -8.963861    0.532521    0.370956
 H  -10.277313   -0.603630    0.057840
 H  -11.280438    1.010785   -1.558193
 H   -9.955868    2.135789   -1.260272
 H  -11.090765    1.747579    0.033713
 H    5.082400   -1.991783    1.173705
 H    6.582182   -1.240972    0.592013
 H    4.097344   -3.402894   -0.318765
 H    4.558363   -2.645405   -2.921436
 H    1.413348    1.429944   -0.571171
 H    3.569018    4.254063    1.341206
 H    2.359426    4.237864    0.029000
 H    5.075079    4.827588   -0.366030
