38 
1y0l_ligand_ani-2x.xyz
 N   19.139486   87.221954   41.915575
 C   20.448253   87.310352   42.325626
 N   21.183657   88.123568   41.618161
 C   20.527694   89.552865   39.646471
 C   19.479120   89.907995   38.804768
 C   18.191545   89.336343   38.982472
 C   17.970341   88.417891   40.002849
 C   20.308938   88.633873   40.668407
 C   19.031793   88.082163   40.832750
 C   19.751361   90.910112   37.705707
 C   17.043378   89.706303   38.079899
 N   20.926607   86.524373   43.367067
 C   18.071026   86.406325   42.461243
 C   17.058643   87.214460   43.278083
 C   17.651014   87.897179   44.511350
 C   17.966735   86.910377   45.637698
 C   18.600895   87.497497   46.889638
 O   18.330812   87.133607   48.001580
 O   19.546449   88.449159   46.701034
 H   21.515107   89.987079   39.511347
 H   16.983689   87.981047   40.138868
 H   20.106856   91.861116   38.120623
 H   20.535009   90.547848   37.029201
 H   18.869662   91.126824   37.099114
 H   16.816003   90.777926   38.127523
 H   17.253381   89.462365   37.031709
 H   16.139329   89.162847   38.371361
 H   20.357019   86.568151   44.204033
 H   21.885918   86.775827   43.572510
 H   18.526156   85.604794   43.048765
 H   17.561978   85.926444   41.619228
 H   16.244228   86.544677   43.579233
 H   16.617697   87.971500   42.618715
 H   16.944638   88.646726   44.885887
 H   18.547925   88.452805   44.204197
 H   18.634419   86.112717   45.279603
 H   17.053308   86.406990   45.963894
 H   19.633228   88.646819   45.758908
