40 
1y3n_ligand_xtb.xyz
 C    1.140559   -0.592324    1.221695
 C    1.728866   -2.012696    1.147866
 O    1.393381   -2.625791   -0.070118
 C    3.267953   -1.974694    1.225295
 O    3.808075   -3.251148    1.059756
 C    3.736639   -0.997300    0.184388
 C    2.963574    0.021172   -0.195235
 O    1.747203    0.325940    0.338835
 C    3.392499    0.966517   -1.260264
 O    2.469245    1.890012   -1.527056
 O    4.452565    0.906996   -1.827184
 C   -2.798374    0.152209   -1.210609
 C   -1.393168    0.755258   -1.373796
 O   -1.406057    1.746514   -2.371866
 C   -0.951364    1.416405   -0.063819
 O   -1.802611    2.484015    0.276817
 C   -1.039335    0.390703    1.075213
 O   -0.204834   -0.734834    0.884530
 C   -2.485700   -0.137208    1.126960
 O   -2.880773   -0.708908   -0.091480
 C   -3.433819    0.969771    1.592061
 O   -3.034531    1.491063    2.752002
 O   -4.447122    1.289714    1.038256
 O   -3.067643   -0.604929   -2.343759
 H    1.239167   -0.185926    2.246233
 H    1.316369   -2.589634    1.989716
 H    0.461202   -2.441199   -0.244005
 H    3.582616   -1.643592    2.223842
 H    3.417720   -3.627055    0.258922
 H    4.688205   -1.160462   -0.291225
 H    2.775520    2.478017   -2.235962
 H   -3.533038    0.971757   -1.105938
 H   -0.694075   -0.053761   -1.625852
 H   -1.776286    1.350940   -3.169825
 H    0.079546    1.775099   -0.181839
 H   -1.931897    2.999265   -0.531980
 H   -0.801060    0.886911    2.024672
 H   -2.536628   -0.955870    1.853386
 H   -3.630454    2.212409    3.013253
 H   -3.812434   -1.183055   -2.141784
