40 
1y3n_ligand_ani-2x.xyz
 C    1.122598   -0.692301    1.049252
 C    1.719387   -2.088791    0.906113
 O    1.625872   -2.533253   -0.431814
 C    3.209300   -2.068902    1.250851
 O    3.816782   -3.300935    0.961412
 C    3.854076   -0.903571    0.548614
 C    3.133346    0.126708    0.109406
 O    1.796810    0.275638    0.262899
 C    3.761510    1.237276   -0.663042
 O    2.864503    2.130423   -1.100915
 O    4.948549    1.319233   -0.877920
 C   -3.163561    0.105615   -1.054531
 C   -1.788799    0.498004   -1.592790
 O   -1.941076    1.388908   -2.682502
 C   -0.997086    1.246151   -0.527401
 O   -1.656390    2.459819   -0.227592
 C   -0.954479    0.441710    0.774716
 O   -0.200089   -0.752814    0.616017
 C   -2.375947   -0.015420    1.167629
 O   -3.034309   -0.685007    0.111824
 C   -3.231746    1.120517    1.732340
 O   -2.618408    1.685312    2.783543
 O   -4.324679    1.455760    1.347817
 O   -3.788647   -0.641786   -2.056171
 H    1.166953   -0.381502    2.108033
 H    1.202744   -2.782748    1.586781
 H    0.699974   -2.436785   -0.693961
 H    3.323833   -1.931877    2.333831
 H    3.550602   -3.531847    0.058565
 H    4.925154   -0.907323    0.391108
 H    3.375932    2.799197   -1.586719
 H   -3.745952    1.006777   -0.806664
 H   -1.266902   -0.420992   -1.893674
 H   -2.593436    0.993360   -3.277845
 H    0.021064    1.426589   -0.889351
 H   -1.953723    2.809237   -1.081891
 H   -0.540523    1.070730    1.570842
 H   -2.263139   -0.749912    1.972149
 H   -3.201997    2.395232    3.100152
 H   -4.478401   -1.166131   -1.629013
