80 
1y3p_ligand_aiqm1.xyz
 C   -5.169371   -0.718604    0.941244
 C   -5.220161    0.247684    2.118247
 O   -4.725646    1.522757    1.759308
 C   -6.662743    0.458322    2.557889
 O   -6.742347    1.458881    3.541302
 C   -7.499209    0.769923    1.339186
 C   -7.079181    0.444074    0.109959
 O   -5.958357   -0.291700   -0.162080
 C   -7.840218    0.841218   -1.100049
 O   -7.187173    0.570167   -2.239408
 O   -8.923256    1.370719   -1.057576
 C   -1.566391   -0.393004   -1.469178
 C   -2.440542   -1.122995   -2.478159
 O   -1.768759   -2.298357   -2.906301
 C   -3.761601   -1.560706   -1.844985
 O   -4.302560   -2.665029   -2.532326
 C   -3.560924   -1.909982   -0.353287
 O   -3.857397   -0.792066    0.503399
 C   -2.105497   -2.253549    0.011706
 O   -1.165953   -1.270845   -0.398084
 C   -1.681205   -3.664593   -0.405666
 O   -0.588214   -4.015276   -0.765777
 O   -2.676479   -4.544773   -0.207030
 C    2.767004    1.040715    0.304341
 C    1.594325    2.012299    0.313576
 O    1.820864    3.129760   -0.528780
 C    0.339804    1.330621   -0.204861
 O   -0.734363    2.249935   -0.265915
 C    0.627885    0.731807   -1.582906
 O   -0.426994   -0.020904   -2.184348
 C    1.919568   -0.133368   -1.604537
 O    3.010665    0.548720   -1.007655
 C    1.693224   -1.515450   -0.997062
 O    1.893475   -1.794388    0.158723
 O    1.207330   -2.355447   -1.905479
 C    7.345775    1.358468   -0.076988
 C    6.278615    0.417056   -0.604711
 O    6.887080   -0.678888   -1.274021
 C    5.483389   -0.155563    0.555303
 O    6.329294   -0.867442    1.446341
 C    4.886623    0.970461    1.387783
 O    3.906622    1.737937    0.680774
 C    5.961844    1.989861    1.788523
 O    6.763255    2.398931    0.703757
 C    6.724283    1.500595    3.018871
 O    6.161942    1.217382    4.043192
 O    8.057199    1.480567    2.878111
 O    7.964123    1.948242   -1.181261
 H   -5.532035   -1.708025    1.251508
 H   -4.636853   -0.179351    2.936555
 H   -3.834820    1.422756    1.420993
 H   -7.023528   -0.458599    3.030107
 H   -6.224802    2.206320    3.222432
 H   -8.408255    1.339977    1.459887
 H   -7.769249    0.873767   -2.948089
 H   -2.071072    0.472709   -1.034553
 H   -2.635454   -0.473903   -3.334083
 H   -0.826604   -2.089057   -2.945548
 H   -4.481263   -0.746362   -1.906183
 H   -3.561447   -3.164467   -2.889360
 H   -4.203523   -2.752259   -0.098274
 H   -2.052130   -2.269395    1.108850
 H   -2.319672   -5.412560   -0.432864
 H    2.558637    0.213633    0.993892
 H    1.426852    2.347480    1.341588
 H    2.724093    3.417522   -0.388805
 H    0.050753    0.555536    0.500306
 H   -0.382065    3.075712   -0.613208
 H    0.814257    1.573112   -2.260411
 H    2.201265   -0.280097   -2.645628
 H    0.791925   -3.099200   -1.428910
 H    8.080245    0.802371    0.521061
 H    5.614579    0.976418   -1.267412
 H    7.438023   -0.316203   -1.971037
 H    4.692526   -0.801243    0.168716
 H    6.778226   -1.535987    0.924780
 H    4.433217    0.547441    2.290610
 H    5.459688    2.903132    2.115082
 H    8.405309    1.168552    3.723570
 H    8.513228    2.665999   -0.859776
