80 
1y3p_ligand_xtb.xyz
 C   -5.085410   -0.543058    0.808511
 C   -5.099773    0.593526    1.848122
 O   -4.133961    1.569073    1.562738
 C   -6.465529    1.309501    1.799557
 O   -6.472309    2.430794    2.631207
 C   -6.729739    1.658742    0.360069
 C   -6.128109    1.012538   -0.640378
 O   -5.301495   -0.063638   -0.502724
 C   -6.334137    1.421314   -2.054766
 O   -5.607532    0.699981   -2.911346
 O   -7.069943    2.308272   -2.400257
 C   -1.835378   -0.711242   -0.994863
 C   -2.802897   -1.291473   -2.034524
 O   -2.097697   -1.959044   -3.050794
 C   -3.783899   -2.295954   -1.350600
 O   -3.525252   -3.603206   -1.786138
 C   -3.587964   -2.321780    0.176028
 O   -3.823505   -1.117415    0.881981
 C   -2.112356   -2.663978    0.401743
 O   -1.245017   -1.743462   -0.216731
 C   -1.810418   -4.072241   -0.114784
 O   -0.923110   -4.342926   -0.885898
 O   -2.548114   -4.988312    0.495230
 C    2.579041    0.534918    0.711587
 C    1.336479    1.374359    1.051944
 O    1.431843    2.662893    0.494944
 C    0.062455    0.717211    0.504139
 O   -1.060060    1.503377    0.813746
 C    0.248220    0.532029   -1.010764
 O   -0.832892   -0.063520   -1.710301
 C    1.541652   -0.288544   -1.282062
 O    2.669794    0.297398   -0.680998
 C    1.295750   -1.745876   -0.880931
 O    1.556397   -2.214133    0.195374
 O    0.738066   -2.412569   -1.876388
 C    6.760648    2.260884   -0.207297
 C    5.833938    1.271323   -0.931881
 O    6.473098    0.763315   -2.077969
 C    5.525933    0.094489   -0.001380
 O    6.703902   -0.587699    0.351110
 C    4.897232    0.628525    1.290934
 O    3.674906    1.309063    1.087136
 C    5.866388    1.644210    1.924285
 O    6.245569    2.666793    1.042508
 C    7.021416    0.867702    2.562608
 O    6.849027    0.004966    3.377836
 O    8.225460    1.278373    2.177834
 O    6.877617    3.400542   -0.996029
 H   -5.870324   -1.288241    1.043794
 H   -4.927396    0.148208    2.838839
 H   -3.260811    1.163326    1.467735
 H   -7.254016    0.648715    2.182271
 H   -5.677753    2.942627    2.424813
 H   -7.369407    2.498193    0.146876
 H   -5.766890    1.003695   -3.819945
 H   -2.361379   -0.004889   -0.340135
 H   -3.375821   -0.470355   -2.477893
 H   -1.148431   -1.893275   -2.859674
 H   -4.816441   -2.026306   -1.600035
 H   -2.964064   -3.502998   -2.584356
 H   -4.215445   -3.125793    0.585983
 H   -1.900722   -2.655788    1.480332
 H   -2.340704   -5.873372    0.151867
 H    2.558976   -0.419316    1.261123
 H    1.262646    1.446973    2.148750
 H    2.360680    2.924455    0.540671
 H   -0.085831   -0.251839    0.986754
 H   -0.834382    2.420308    0.601010
 H    0.381755    1.526917   -1.457304
 H    1.744428   -0.266905   -2.357671
 H    0.344025   -3.264389   -1.553977
 H    7.751318    1.785511   -0.070995
 H    4.896412    1.781099   -1.188630
 H    6.734643    1.515071   -2.622523
 H    4.825936   -0.582651   -0.508109
 H    7.161357   -0.786693   -0.477750
 H    4.759387   -0.207690    1.990349
 H    5.335912    2.159181    2.734241
 H    8.910297    0.742885    2.611978
 H    7.143412    4.127194   -0.420858
