43 
1yc1_ligand_aiqm1.xyz
 C    2.350909   36.032478   -4.413483
 C    2.828565   36.946988   -3.506530
 O    4.090680   37.483477   -3.416477
 C    3.933262   38.575405   -2.515929
 O    2.799922   38.290982   -1.698739
 C    2.050454   37.433540   -2.464871
 C    0.748467   37.029574   -2.280289
 C    0.238941   36.099966   -3.201063
 C    1.014991   35.606728   -4.252995
 C    0.435974   34.610256   -5.171537
 C    0.386320   34.610333   -6.560899
 C    0.855989   35.565833   -7.565034
 O    0.548589   35.142267   -8.818344
 O    1.439730   36.594339   -7.344801
 N   -0.257762   33.466913   -6.916582
 C   -0.218787   33.400476   -4.799855
 N   -0.627762   32.726850   -5.879248
 C   -0.418542   32.869392   -3.440230
 C    0.570247   32.109734   -2.810228
 C    0.438656   31.600658   -1.522101
 C    1.504083   30.746438   -0.884565
 C    1.169042   29.254808   -0.954178
 C   -0.754534   31.876759   -0.846884
 O   -0.883304   31.370846    0.416872
 C   -1.759700   32.637787   -1.434109
 C   -1.591400   33.127591   -2.724769
 O   -2.540475   33.900606   -3.330804
 H    2.964625   35.679311   -5.230145
 H    3.738931   39.487791   -3.089930
 H    4.818137   38.662727   -1.892804
 H    0.150002   37.406599   -1.464825
 H   -0.785551   35.768463   -3.096428
 H    0.883984   35.821696   -9.413881
 H   -0.474212   33.164920   -7.847368
 H    1.487057   31.899395   -3.351859
 H    1.624271   31.044512    0.158851
 H    2.457994   30.929504   -1.383356
 H    1.059454   28.932046   -1.991689
 H    1.957492   28.657265   -0.492461
 H    0.233344   29.050150   -0.433043
 H   -1.725520   31.643651    0.785881
 H   -2.680568   32.848219   -0.891270
 H   -3.314995   33.957729   -2.767002
