28 
1yci_ligand_aiqm1.xyz
 C   -2.256850   -0.796687    0.123493
 C   -3.149022   -0.537949   -0.913063
 C   -2.712019   -0.558786   -2.235068
 C   -1.380868   -0.851782   -2.515948
 C   -0.488210   -1.112232   -1.478732
 C   -0.914930   -1.081008   -0.147976
 C    0.067688   -1.289927    0.974473
 C    0.680235    0.042783    1.469418
 C   -0.412779    0.876023    2.109160
 O   -1.034689    0.520729    3.074739
 O   -0.639647    2.035442    1.467131
 N    1.370310    0.772181    0.425240
 C    2.560202    0.343645   -0.029079
 O    3.174987   -0.617649    0.385533
 C    3.081337    1.240938   -1.163947
 O    4.302764    0.899144   -1.560124
 O    2.436275    2.145587   -1.629043
 H   -2.600081   -0.784328    1.152091
 H   -4.185116   -0.320477   -0.686304
 H   -3.404481   -0.352959   -3.039997
 H   -1.034145   -0.874775   -3.540766
 H    0.549303   -1.344464   -1.701202
 H   -0.409874   -1.764751    1.829680
 H    0.891481   -1.919813    0.644750
 H    1.397630   -0.203658    2.255097
 H   -1.370524    2.465839    1.928636
 H    0.934271    1.559925   -0.029289
 H    4.546853    1.509010   -2.268501
