28 
1yci_ligand_xtb.xyz
 C   -2.348164   -0.783258    0.182731
 C   -3.262525   -0.437204   -0.796435
 C   -2.889673   -0.443010   -2.130046
 C   -1.600441   -0.804190   -2.480995
 C   -0.686399   -1.151482   -1.501412
 C   -1.049850   -1.141162   -0.159729
 C   -0.039613   -1.459403    0.908025
 C    0.725210   -0.182839    1.324570
 C   -0.263546    0.805963    1.933351
 O   -0.913050    0.588145    2.917723
 O   -0.342771    1.941510    1.239318
 N    1.440715    0.384709    0.215922
 C    2.757118    0.650793    0.246683
 O    3.503469    0.430548    1.172815
 C    3.213035    1.262698   -1.088865
 O    4.484894    1.608127   -1.088978
 O    2.468541    1.400610   -2.028483
 H   -2.642463   -0.778345    1.222278
 H   -4.269373   -0.163339   -0.517547
 H   -3.603329   -0.171247   -2.893399
 H   -1.303677   -0.815068   -3.519086
 H    0.315775   -1.442351   -1.783335
 H   -0.534112   -1.856986    1.794785
 H    0.684039   -2.190276    0.544879
 H    1.467528   -0.432075    2.093436
 H   -0.981772    2.547215    1.647906
 H    0.919316    0.643015   -0.612912
 H    4.751219    1.988904   -1.942802
