28 
1yci_ligand_ani-2x.xyz
 C   -2.297384   -0.741461    0.088288
 C   -3.224687   -0.540431   -0.928800
 C   -2.840176   -0.667865   -2.260810
 C   -1.525834   -0.999786   -2.570912
 C   -0.601231   -1.205381   -1.549916
 C   -0.973479   -1.076139   -0.210386
 C    0.037670   -1.280141    0.895606
 C    0.683135    0.029762    1.403869
 C   -0.356402    0.878988    2.111485
 O   -1.041710    0.472279    3.019651
 O   -0.464983    2.127266    1.625988
 N    1.387807    0.755229    0.375228
 C    2.664238    0.430506    0.066515
 O    3.325692   -0.430299    0.615722
 C    3.185979    1.308864   -1.085674
 O    4.449332    1.048762   -1.395567
 O    2.500187    2.141303   -1.633765
 H   -2.596482   -0.633365    1.129695
 H   -4.251422   -0.284019   -0.681151
 H   -3.565550   -0.509031   -3.055359
 H   -1.218014   -1.102603   -3.608913
 H    0.425503   -1.469137   -1.797444
 H   -0.432255   -1.769539    1.755957
 H    0.854467   -1.924725    0.554949
 H    1.423514   -0.252179    2.161482
 H   -1.160164    2.558891    2.149997
 H    0.927919    1.487287   -0.149362
 H    4.684428    1.646962   -2.125974
