80 
1yet_ligand_ani-2x.xyz
 O   -0.384173    5.067846   -1.839775
 O   -4.420586   -1.688912   -1.003620
 O   -3.347409    0.026561    1.241878
 O   -1.891710    1.778878    1.351025
 O    1.535517   -4.713388    1.119400
 O    2.451837   -2.479260    2.595042
 O    5.356248    2.124283   -0.386436
 O    4.409745    4.593841   -1.218483
 O    0.911624    0.873009    0.368914
 N   -0.109643    3.129550   -0.628997
 N   -3.686421    1.648158    2.737025
 C   -0.838658    4.040016   -1.362764
 C   -2.291824    3.686503   -1.531328
 C   -2.684660    2.392941   -1.544732
 C   -4.060964    1.956991   -1.365415
 C   -4.473989    0.687241   -1.233844
 C   -3.599523   -0.545446   -1.113363
 C   -2.645941   -0.495169    0.099303
 C   -2.022833   -1.842751    0.416308
 C   -0.826154   -2.110238   -0.120244
 C   -0.034915   -3.399134   -0.122444
 C    0.834673   -3.488111    1.137101
 C    1.837680   -2.331097    1.311195
 C    2.982633   -2.347597    0.287104
 C    3.217726   -0.986461   -0.382754
 C    3.566862    0.124496    0.630696
 C    3.171429    1.477322    0.117599
 C    4.040058    2.427108   -0.321595
 C    3.601791    3.753831   -0.848929
 C    2.155908    3.971919   -0.923871
 C    1.274685    3.030047   -0.537328
 C    1.723104    1.722379    0.028365
 C   -3.228968    4.843465   -1.709444
 C   -5.027809   -2.036944   -2.221916
 C   -2.884343    1.193133    1.738593
 C   -2.810724   -2.769700    1.296312
 C   -0.872783   -4.669895   -0.297656
 C    1.745006   -1.882526    3.653543
 C    4.270576   -1.048133   -1.487462
 C    6.316641    3.072982    0.062070
 H    2.153434   -4.670671    1.863520
 H   -0.613427    2.450298   -0.061680
 H   -4.352803    1.027682    3.165675
 H   -3.325284    2.412802    3.283920
 H   -1.936190    1.606617   -1.678963
 H   -4.809307    2.748884   -1.304886
 H   -5.541370    0.493107   -1.149140
 H   -2.959942   -0.655837   -2.008102
 H   -1.842009    0.209282   -0.120324
 H   -0.287506   -1.279245   -0.584531
 H    0.640516   -3.351275   -0.985275
 H    0.147138   -3.461826    2.002630
 H    1.301000   -1.374415    1.274473
 H    3.878593   -2.680531    0.820794
 H    2.777958   -3.096429   -0.488159
 H    2.260336   -0.703348   -0.837910
 H    4.634808    0.100264    0.871250
 H    3.026098   -0.062335    1.563805
 H    1.825879    4.915226   -1.325244
 H   -2.652386    5.732239   -1.979276
 H   -3.772962    5.073172   -0.782679
 H   -3.962452    4.648845   -2.500886
 H   -5.688661   -1.244155   -2.601831
 H   -5.622607   -2.935738   -2.042230
 H   -4.274773   -2.257117   -2.994549
 H   -3.393747   -3.471896    0.690982
 H   -3.509437   -2.195348    1.907226
 H   -2.155646   -3.340479    1.963567
 H   -1.405320   -4.956284    0.614930
 H   -0.226760   -5.508603   -0.567449
 H   -1.608672   -4.525935   -1.094206
 H    1.609512   -0.803492    3.479315
 H    0.754302   -2.335472    3.810673
 H    2.338751   -2.021147    4.560938
 H    3.972106   -1.731850   -2.289693
 H    5.234709   -1.388765   -1.088104
 H    4.428197   -0.052518   -1.919974
 H    5.921364    3.661601    0.897019
 H    6.599061    3.747399   -0.747508
 H    7.178286    2.489356    0.392510
