54 
1yk7_ligand_xtb.xyz
 C   -0.357362   -5.759330    1.505823
 C   -0.332559   -4.694010    0.411582
 C    0.488249   -5.188880   -0.776892
 C    0.228991   -3.385746    0.982370
 C   -0.037455   -2.183220    0.084931
 N    0.755901   -1.045002    0.523755
 C    1.064576   -0.001797   -0.275295
 O    0.695021    0.107286   -1.428926
 O    1.827970    0.883951    0.372435
 C    2.235405    2.045852   -0.369816
 C    2.661375    3.105184    0.605876
 C    1.918006    4.270691    0.736692
 C    2.310307    5.241886    1.642448
 C    3.436350    5.052620    2.425565
 C    4.174565    3.887295    2.302124
 C    3.789962    2.917561    1.393686
 C   -1.526946   -1.774708    0.115160
 O   -2.303177   -2.120283    0.980082
 N   -1.846296   -0.979204   -0.923898
 C   -3.098896   -0.259371   -0.986145
 C   -3.307261    0.294502   -2.395132
 C   -2.437102    1.555862   -2.411817
 N   -2.329813    1.951393   -1.015665
 C   -3.035407    1.029670   -0.153686
 C   -1.400643    2.829144   -0.578562
 N   -0.635580    3.583353   -1.247382
 H   -0.749410   -6.695699    1.116427
 H    0.646960   -5.938951    1.884571
 H   -0.988145   -5.441833    2.332086
 H   -1.360682   -4.510001    0.085236
 H    0.492407   -4.466897   -1.589399
 H    1.517369   -5.373320   -0.474732
 H    0.073081   -6.119044   -1.157527
 H    1.305115   -3.488644    1.138445
 H   -0.248897   -3.191911    1.945236
 H    0.244750   -2.389309   -0.953115
 H    1.030931   -0.996649    1.491652
 H    3.062357    1.756768   -1.030063
 H    1.396736    2.397846   -0.977990
 H    1.037622    4.407084    0.124724
 H    1.732387    6.149322    1.738645
 H    3.739544    5.811226    3.132573
 H    5.052975    3.735812    2.912703
 H    4.363342    2.007259    1.294899
 H   -1.074073   -0.599105   -1.466443
 H   -3.890444   -0.930131   -0.645421
 H   -3.013018   -0.417701   -3.162653
 H   -4.357090    0.550338   -2.535068
 H   -2.888974    2.355517   -3.008339
 H   -1.437768    1.345325   -2.813248
 H   -4.048919    1.394722    0.057273
 H   -2.511429    0.883610    0.792211
 H   -1.335234    2.898761    0.504361
 H   -0.729673    3.500608   -2.256556
