17 
1ykp_ligand_xtb.xyz
 C   24.659876   12.336703   35.942215
 C   24.918388   11.191858   35.190941
 C   24.444575    9.957837   35.597239
 O   24.712490    8.849296   34.873027
 C   23.678681    9.872228   36.772943
 O   23.231596    8.628014   37.125927
 C   23.404078   11.012716   37.506663
 C   23.895342   12.241943   37.100823
 C   25.204868   13.626982   35.432937
 O   25.492877   13.810159   34.283009
 O   25.375857   14.605404   36.344331
 H   25.496980   11.268550   34.284901
 H   24.293855    8.091648   35.305484
 H   22.710284    8.683545   37.934188
 H   22.800082   10.939044   38.400820
 H   23.634133   13.116087   37.681195
 H   25.162538   14.313287   37.239958
