17 
1ykp_ligand_ani-2x.xyz
 C   24.652492   12.337872   35.949024
 C   24.918475   11.192002   35.195837
 C   24.445043    9.959664   35.610802
 O   24.720659    8.846298   34.888757
 C   23.670838    9.876492   36.779647
 O   23.249326    8.613333   37.098961
 C   23.377555   11.015963   37.511995
 C   23.871428   12.250469   37.098305
 C   25.193636   13.636501   35.431575
 O   25.455070   13.826676   34.273070
 O   25.385780   14.619680   36.339141
 H   25.497050   11.273165   34.280823
 H   24.305198    8.094148   35.335460
 H   22.723698    8.641790   37.907698
 H   22.771010   10.943832   38.412989
 H   23.601518   13.139288   37.665495
 H   25.277723   14.278127   37.237020
