45 
1z3t_ligand_aiqm1.xyz
 C    0.982195    0.032924   -0.147655
 C    1.419068   -1.237034   -0.892450
 C    2.780778   -1.649801   -0.371174
 C    3.758770   -0.503542   -0.526878
 C    3.210193    0.730396    0.179312
 C    4.067680    1.956395   -0.037011
 O    0.552679   -2.331497   -0.651538
 O    3.310078   -2.762380   -1.075409
 O    5.012086   -0.812744    0.049107
 O    1.924561    1.054210   -0.361617
 O    3.529059    3.085025    0.621851
 C   -4.148242    0.580581    0.523990
 C   -3.121377    0.561281    1.647115
 C   -1.764230    1.003516    1.131165
 C   -1.394267    0.130913   -0.062999
 C   -2.502119    0.225360   -1.114941
 C   -2.232273   -0.605912   -2.348595
 O   -5.334709    0.069185    1.042344
 O   -3.485586    1.453925    2.683904
 O   -0.773775    0.853845    2.128130
 O   -0.202853    0.562214   -0.692750
 O   -3.726526   -0.241702   -0.547872
 O   -1.887761   -1.950375   -2.033796
 H    0.867021   -0.191061    0.919033
 H    1.494244   -1.012046   -1.960776
 H    2.683550   -1.894258    0.693915
 H    3.865835   -0.285748   -1.599992
 H    3.124488    0.521005    1.255379
 H    4.162814    2.137568   -1.115741
 H    5.058998    1.781230    0.376184
 H   -0.217919   -2.267279   -1.229545
 H    2.644960   -3.454187   -1.045252
 H    5.277457   -1.671355   -0.291131
 H    2.621675    3.178295    0.321623
 H   -4.296248    1.607043    0.149394
 H   -3.048203   -0.466294    2.018688
 H   -1.834097    2.051307    0.812648
 H   -1.303999   -0.901798    0.289036
 H   -2.614377    1.273371   -1.428525
 H   -1.373718   -0.191938   -2.871829
 H   -3.106467   -0.570828   -3.003577
 H   -5.964460   -0.011927    0.322602
 H   -4.316901    1.152671    3.057119
 H   -1.042675    1.377440    2.887112
 H   -2.655306   -2.365993   -1.629901
