45 
1z3v_ligand_ani-2x.xyz
 C    1.032679   -0.237207    0.712567
 C    1.907026   -1.285789    1.383336
 C    3.366626   -1.077225    1.004091
 C    3.529265   -1.082800   -0.515989
 C    2.555970   -0.083322   -1.137210
 C    2.483755   -0.151605   -2.655965
 O   -0.312642   -0.509382    0.984179
 O    1.836070   -1.226147    2.795915
 O    4.158281   -2.136550    1.509254
 O    3.238391   -2.367361   -1.016447
 O    1.230313   -0.335613   -0.680472
 O    1.594982    0.820074   -3.161682
 C   -4.021309    0.996015   -0.065400
 C   -3.103829    0.636931   -1.232488
 C   -1.968190   -0.258726   -0.774563
 C   -1.236638    0.403678    0.403873
 C   -2.241322    0.795150    1.493758
 C   -1.593888    1.647701    2.578434
 O   -4.998776    1.917391   -0.422183
 O   -3.903865    0.000166   -2.201483
 O   -1.139016   -0.480643   -1.899944
 O   -3.280373    1.605241    0.953865
 O   -1.058768    2.828870    2.027644
 H    1.289123    0.780187    1.058959
 H    1.595702   -2.269127    1.005991
 H    3.710766   -0.110910    1.408570
 H    4.561237   -0.785567   -0.769896
 H    2.840722    0.938823   -0.838753
 H    2.201733   -1.169848   -2.959338
 H    3.468611    0.069764   -3.082298
 H    0.933316   -1.469341    3.037033
 H    3.858298   -2.291543    2.417510
 H    3.694863   -2.984840   -0.424774
 H    0.707248    0.620393   -2.823807
 H   -4.485175    0.061839    0.318646
 H   -2.678454    1.576591   -1.623408
 H   -2.386923   -1.217133   -0.420132
 H   -0.728124    1.311807    0.046921
 H   -2.667357   -0.122446    1.932623
 H   -2.345026    1.867015    3.352537
 H   -0.765552    1.109680    3.049169
 H   -5.463770    1.547619   -1.187765
 H   -3.304834   -0.279041   -2.907292
 H   -0.315488   -0.869691   -1.560783
 H   -1.795658    3.266221    1.578600
