88 
1z6j_ligand_xtb.xyz
 C   -3.309693   -1.201154    1.161277
 C   -3.952855    0.023231    1.327632
 C   -4.501768    0.308462    2.566915
 C   -3.880375   -1.686736    3.429666
 C   -3.286811   -2.079597    2.246086
 N   -4.466921   -0.513020    3.601261
 N   -2.663824   -1.587912   -0.007778
 C   -2.821370   -1.077191   -1.260649
 C   -1.947897   -1.761941   -2.263647
 O   -3.599831   -0.180470   -1.534740
 C   -1.225449   -1.090272   -3.255668
 C   -0.448737   -1.844835   -4.131867
 C   -0.355147   -3.217136   -4.027397
 C   -1.059800   -3.887120   -3.033127
 C   -1.871314   -3.151175   -2.184223
 C   -0.915539   -5.358096   -2.842183
 N   -0.936455   -5.752100   -1.542335
 N   -0.800019   -6.228638   -3.763683
 C   -1.217309    0.409489   -3.467894
 N   -1.466542    1.216201   -2.299379
 C   -0.517043    1.438559   -1.376496
 C   -1.072994    2.112520   -0.114192
 N   -0.055175    2.775607    0.666785
 O    0.648529    1.126442   -1.515305
 C    0.288371    4.035295    0.256948
 C    1.246072    4.734416    1.129144
 N    1.714718    4.230662    2.240611
 C    1.326142    2.981138    2.567692
 C    0.478561    2.223979    1.816459
 C    0.176836    0.829730    2.173609
 N    1.592304    5.956738    0.700470
 C    2.460905    6.869540    1.401709
 C    1.662852    8.070569    1.909836
 C    3.595937    7.311334    0.480168
 C   -0.344058    0.511956    3.419569
 C   -0.582614   -0.817038    3.777992
 C   -0.298846   -1.826716    2.854588
 C    0.231073   -1.509691    1.614152
 C    0.483743   -0.187586    1.274087
 N   -1.143432   -1.120518    4.985288
 C    0.463905   -2.564611    0.588948
 N    1.650632   -2.494626   -0.019476
 C    2.049115   -3.289466   -1.165091
 C    2.591600   -2.367379   -2.265025
 C    3.940726   -1.727626   -1.955071
 O   -0.396772   -3.400875    0.311780
 C    3.033610   -4.377970   -0.740855
 O   -0.207269    4.558200   -0.737337
 H   -4.034076    0.722913    0.513654
 H   -4.997438    1.254776    2.739691
 H   -3.891566   -2.343092    4.289707
 H   -2.818731   -3.046268    2.147251
 H   -2.015040   -2.367955    0.105988
 H    0.110625   -1.333527   -4.901838
 H    0.282996   -3.770962   -4.701236
 H   -2.474209   -3.681110   -1.462531
 H   -0.740342   -5.079037   -0.815415
 H   -0.726396   -6.720137   -1.369570
 H   -0.865902   -5.852891   -4.703697
 H   -1.975066    0.660610   -4.216323
 H   -0.234639    0.695041   -3.855803
 H   -2.437898    1.366640   -2.064336
 H   -1.795301    2.875142   -0.423189
 H   -1.566778    1.355107    0.500082
 H    1.758440    2.584600    3.473698
 H    1.138045    6.257146   -0.152518
 H    2.862487    6.307003    2.249810
 H    1.230305    8.617610    1.074534
 H    0.859164    7.737755    2.561615
 H    2.308567    8.742499    2.468343
 H    4.280935    7.964564    1.013466
 H    3.198014    7.850684   -0.377040
 H    4.147347    6.446357    0.120869
 H   -0.581854    1.300935    4.117694
 H   -0.477618   -2.859460    3.113992
 H    0.899656    0.060822    0.311248
 H   -1.207802   -0.403820    5.684901
 H   -1.137979   -2.073693    5.299001
 H    2.292172   -1.773555    0.273079
 H    1.136383   -3.765513   -1.538295
 H    2.674382   -2.950782   -3.183390
 H    1.855373   -1.578759   -2.436129
 H    4.212663   -1.052145   -2.762016
 H    4.722372   -2.477186   -1.863895
 H    3.904995   -1.143891   -1.037903
 H    3.358008   -4.943227   -1.609909
 H    3.903363   -3.946021   -0.252920
 H    2.552476   -5.059642   -0.043521
