36 
1zd3_ligand_aiqm1.xyz
 C  -17.659580   -7.375970   62.979029
 N  -18.157436   -7.784396   64.296391
 C  -17.543019   -8.802666   64.978833
 N  -17.935666   -8.898339   66.298761
 C  -17.572664  -10.068944   67.074584
 C  -17.526268   -9.729507   68.555727
 C  -17.149632  -10.925573   69.417074
 C  -17.126928  -10.597913   70.894968
 O  -16.759456  -11.627581   71.700373
 O  -16.722457   -9.553120   64.472562
 O  -17.406354   -9.536902   71.374003
 C  -18.716156   -6.530189   62.280487
 C  -18.246584   -6.070068   60.902094
 C  -16.926045   -5.309511   61.008143
 C  -15.862875   -6.164830   61.695397
 C  -16.334876   -6.613790   63.075593
 H  -17.486982   -8.290863   62.411000
 H  -18.587582   -7.060447   64.849818
 H  -18.813710   -8.464306   66.534534
 H  -16.601009  -10.404263   66.719213
 H  -18.282215  -10.892285   66.901033
 H  -18.500586   -9.349001   68.874293
 H  -16.811875   -8.919800   68.719527
 H  -16.163090  -11.306678   69.135550
 H  -17.861052  -11.745510   69.268299
 H  -16.566201  -12.404428   71.168332
 H  -18.915715   -5.649195   62.904766
 H  -19.648137   -7.096266   62.205739
 H  -19.013566   -5.447641   60.437756
 H  -18.110299   -6.943292   60.256471
 H  -17.085052   -4.398991   61.596071
 H  -16.585911   -4.996266   60.019336
 H  -14.925542   -5.611989   61.780925
 H  -15.656279   -7.047043   61.082201
 H  -15.591316   -7.245733   63.564007
 H  -16.489385   -5.731507   63.710911
