36 
1zd3_ligand_dft.xyz
 C    2.897721   -0.193386    0.252711
 N    1.557307   -0.750349    0.124923
 C    0.473248   -0.025326    0.576145
 N   -0.747151   -0.555473    0.198399
 C   -1.964799   -0.017275    0.772872
 C   -3.156291   -0.277069   -0.142646
 C   -4.442696    0.306278    0.429690
 C   -5.658403   -0.005541   -0.428769
 O   -6.818909    0.548256   -0.008268
 O    0.576694    0.989244    1.249554
 O   -5.640705   -0.695043   -1.411696
 C    3.932876   -1.317392    0.174318
 C    5.357501   -0.771859    0.312788
 C    5.645143    0.316893   -0.725302
 C    4.608962    1.441567   -0.645576
 C    3.184981    0.896748   -0.787944
 H    2.940002    0.262001    1.247646
 H    1.404589   -1.314727   -0.700818
 H   -0.762054   -1.543317   -0.014555
 H   -1.800874    1.054412    0.908703
 H   -2.155151   -0.437227    1.773393
 H   -3.295598   -1.353532   -0.296924
 H   -2.961582    0.154366   -1.129308
 H   -4.354676    1.396610    0.535934
 H   -4.629136   -0.086112    1.439923
 H   -6.669228    1.074799    0.788194
 H    3.836541   -1.827378   -0.797198
 H    3.723325   -2.062659    0.949536
 H    6.080776   -1.589927    0.220276
 H    5.483321   -0.351680    1.320330
 H    5.619868   -0.127220   -1.730739
 H    6.655110    0.717867   -0.582261
 H    4.801818    2.195180   -1.417347
 H    4.702584    1.952051    0.323077
 H    2.448022    1.697961   -0.674238
 H    3.055145    0.467803   -1.793323
