42 
1zd4_ligand_ani-2x.xyz
 C   15.464630   11.508346  141.349231
 N   16.333993   12.053307  140.316609
 C   16.924951   11.212911  139.397199
 N   17.608885   11.858277  138.388291
 C   18.124701   11.086507  137.270831
 C   17.065346   10.721272  136.228244
 C   17.635632    9.956581  135.035202
 C   16.569602    9.592700  134.005357
 C   17.135674    8.828535  132.814128
 O   16.889277    9.993141  139.496341
 C   16.066728    8.468864  131.796737
 O   16.505250    7.787874  130.711884
 O   14.902917    8.747344  131.904015
 C   15.343182   12.513516  142.495388
 C   14.433472   11.999455  143.614112
 C   13.053968   11.617991  143.069781
 C   13.176251   10.597615  141.934314
 C   14.078647   11.118295  140.813951
 H   15.953587   10.597559  141.714693
 H   16.207408   13.024301  140.067871
 H   17.393374   12.829020  138.216644
 H   18.566890   10.177562  137.687872
 H   18.930332   11.669783  136.808641
 H   16.576615   11.639462  135.872476
 H   16.290033   10.119191  136.719428
 H   18.127704    9.038311  135.389149
 H   18.418409   10.560785  134.551715
 H   16.071005   10.497901  133.638330
 H   15.783401    8.986493  134.471042
 H   17.624260    7.900362  133.145829
 H   17.911312    9.420993  132.306611
 H   17.459343    7.640862  130.771383
 H   14.925585   13.448129  142.089260
 H   16.343813   12.746667  142.878207
 H   14.341064   12.754804  144.403479
 H   14.896078   11.116632  144.079587
 H   12.557514   12.521520  142.686624
 H   12.417223   11.226938  143.872750
 H   12.187154   10.345572  141.533881
 H   13.599095    9.663110  142.332126
 H   14.203246   10.365945  140.027343
 H   13.617848   12.002766  140.348947
