42 
1zd4_ligand_xtb.xyz
 C   14.936919   11.396410  141.194197
 N   15.385367   11.872629  139.901282
 C   16.344592   11.208120  139.189767
 N   16.828013   11.916133  138.115289
 C   17.622299   11.249953  137.108681
 C   16.786859   10.770359  135.919032
 C   17.635871   10.005798  134.908222
 C   16.812934    9.561674  133.702154
 C   17.646703    8.755020  132.710341
 O   16.744311   10.100751  139.483396
 C   16.850890    8.387661  131.472214
 O   17.511604    7.602209  130.595985
 O   15.734718    8.747538  131.246036
 C   15.605475   12.162772  142.339035
 C   15.126340   11.629514  143.685589
 C   13.608097   11.733970  143.793286
 C   12.940564   10.974581  142.650776
 C   13.416227   11.507976  141.302754
 H   15.236931   10.344547  141.238339
 H   15.222208   12.847553  139.703614
 H   16.303286   12.718794  137.803364
 H   18.086714   10.395654  137.605749
 H   18.405377   11.935580  136.768899
 H   16.322169   11.630287  135.428902
 H   15.990048   10.122946  136.290181
 H   18.069410    9.131383  135.398325
 H   18.459326   10.642230  134.573874
 H   16.402149   10.432881  133.189528
 H   15.970389    8.953095  134.033597
 H   18.010220    7.837139  133.182316
 H   18.517923    9.337467  132.392858
 H   18.402764    7.377849  130.893527
 H   15.356015   13.224759  142.255689
 H   16.689293   12.060753  142.256438
 H   15.597900   12.191440  144.494448
 H   15.425731   10.584192  143.783832
 H   13.312327   12.785129  143.752357
 H   13.275177   11.330670  144.751564
 H   11.855174   11.069498  142.723077
 H   13.190884    9.914509  142.726055
 H   12.951118   10.948590  140.489322
 H   13.125083   12.557185  141.201609
