45 
1zd5_ligand_xtb.xyz
 C  -18.064742  -10.279319   67.137258
 N  -18.331007   -9.232996   66.170285
 C  -17.330790   -8.416616   65.716024
 N  -17.784176   -7.323570   65.017511
 C  -16.860539   -6.524704   64.243647
 C  -16.707047   -7.023188   62.804535
 C  -15.733023   -6.157135   62.011305
 C  -15.539526   -6.672877   60.587490
 C  -14.586574   -5.786905   59.790138
 O  -16.154005   -8.631681   65.916639
 C  -14.361282   -6.319611   58.377623
 C  -13.468037   -5.403010   57.563410
 O  -13.180473   -5.859172   56.325650
 O  -13.038012   -4.354907   57.940956
 C  -18.409255   -9.832938   68.561003
 C  -18.104594  -10.948775   69.555542
 C  -18.877708  -12.213546   69.194663
 C  -18.538478  -12.657092   67.774877
 C  -18.845194  -11.543509   66.777957
 H  -16.989551  -10.473453   67.069228
 H  -19.281125   -8.897712   66.130725
 H  -18.737971   -7.336599   64.690251
 H  -15.899135   -6.582736   64.757566
 H  -17.208586   -5.487403   64.250360
 H  -17.684171   -7.020796   62.312326
 H  -16.346030   -8.053340   62.832059
 H  -14.769212   -6.142071   62.522977
 H  -16.105599   -5.130914   61.976363
 H  -16.508146   -6.712149   60.082170
 H  -15.144892   -7.691043   60.626731
 H  -13.625431   -5.723081   60.302166
 H  -14.986901   -4.774101   59.725410
 H  -15.319057   -6.412909   57.855048
 H  -13.902661   -7.312549   58.417899
 H  -13.584357   -6.716828   56.140611
 H  -19.471858   -9.577068   68.611290
 H  -17.832385   -8.939475   68.807482
 H  -18.367009  -10.625706   70.565036
 H  -17.033792  -11.161005   69.538568
 H  -19.950219  -12.017113   69.267224
 H  -18.635946  -13.010705   69.900268
 H  -19.109215  -13.551498   67.516508
 H  -17.477283  -12.907567   67.718093
 H  -18.582732  -11.858429   65.766524
 H  -19.915873  -11.321698   66.796004
