62 
1zeo_ligand_xtb.xyz
 C   -1.636141   -0.209916   -1.468068
 C   -1.502313    0.859074   -0.561475
 C   -2.602410    1.499205    0.014102
 C   -3.847279    0.995346   -0.337559
 C   -4.005475   -0.074371   -1.218700
 C   -2.898484   -0.675677   -1.794454
 O   -5.048960    1.459024    0.098780
 N   -6.001788    0.648530   -0.532663
 C   -5.448237   -0.301558   -1.347273
 C   -7.379891    0.916671   -0.278663
 O   -6.090627   -1.107120   -1.987235
 C   -2.469472    2.656225    0.956924
 C   -2.672400    2.223022    2.413884
 C   -2.434581    3.386804    3.366684
 C   -0.423473   -0.848646   -2.084414
 C   -0.099960   -2.202434   -1.442580
 C    1.160415   -2.809209   -2.044262
 O   -0.237647    1.336158   -0.269772
 C    0.405472    0.709882    0.826228
 C    1.763835    0.167564    0.427729
 C    0.684803    1.717497    1.938489
 C    2.513504    0.829357   -0.533290
 C    3.745706    0.329885   -0.913558
 C    4.260330   -0.825053   -0.337757
 C    3.508789   -1.465611    0.641376
 C    2.273843   -0.977360    1.023055
 C    5.598138   -1.368590   -0.774146
 C    5.437979   -2.756898   -1.398190
 C    6.580544   -1.409328    0.398091
 O    0.785389    2.903603    1.809992
 O    0.858078    1.090364    3.109861
 H   -3.028891   -1.487805   -2.491758
 H   -7.608086    0.797658    0.782756
 H   -7.942378    0.189112   -0.861922
 H   -7.642222    1.928525   -0.595269
 H   -3.223567    3.404922    0.705881
 H   -1.481359    3.102808    0.841735
 H   -3.688142    1.841644    2.537755
 H   -1.981853    1.409591    2.651889
 H   -1.429082    3.780643    3.234436
 H   -2.552796    3.067969    4.400102
 H   -3.142391    4.188838    3.170891
 H    0.435070   -0.185430   -1.975505
 H   -0.605071   -1.000810   -3.150541
 H    0.043133   -2.071317   -0.368352
 H   -0.943387   -2.881219   -1.585119
 H    2.010144   -2.149407   -1.883108
 H    1.379574   -3.769461   -1.583383
 H    1.037968   -2.961216   -3.114373
 H   -0.211387   -0.096443    1.241792
 H    2.116177    1.726379   -0.982569
 H    4.316468    0.847768   -1.671114
 H    3.884801   -2.362481    1.109812
 H    1.703399   -1.487075    1.786055
 H    6.006396   -0.696763   -1.537282
 H    4.745851   -2.719273   -2.236646
 H    5.054340   -3.466611   -0.669620
 H    6.398098   -3.119569   -1.758221
 H    6.681497   -0.421338    0.841968
 H    7.559635   -1.736725    0.055643
 H    6.239152   -2.097827    1.166876
 H    1.091320    1.728574    3.803555
