62 
1zeo_ligand_dft.xyz
 C    1.069371   -1.527980    0.492526
 C    1.196317   -0.123071    0.625933
 C    2.408129    0.561851    0.492368
 C    3.496111   -0.248897    0.181038
 C    3.415907   -1.618074    0.015575
 C    2.201170   -2.272242    0.184442
 O    4.765650    0.214307    0.011683
 N    5.517185   -0.912947   -0.372085
 C    4.776589   -2.088944   -0.260341
 C    6.918569   -0.795161   -0.070548
 O    5.240155   -3.205686   -0.394935
 C    2.555780    2.048362    0.666149
 C    2.555991    2.807504   -0.670658
 C    2.593948    4.319881   -0.469030
 C   -0.263979   -2.213867    0.658861
 C   -0.953663   -2.514830   -0.679428
 C   -2.345042   -3.110739   -0.486100
 O    0.077621    0.607038    0.973565
 C   -0.702376    1.119648   -0.088824
 C   -2.144038    0.653235    0.012912
 C   -0.705443    2.647522   -0.022836
 C   -2.728975    0.459182    1.261010
 C   -4.049590    0.030532    1.351599
 C   -4.816560   -0.202591    0.209043
 C   -4.223534    0.021238   -1.037105
 C   -2.904939    0.444957   -1.136376
 C   -6.244045   -0.705719    0.318359
 C   -6.398444   -2.087697   -0.331223
 C   -7.244796    0.297802   -0.269263
 O   -0.507502    3.314326    0.959420
 O   -1.010340    3.166973   -1.225698
 H    2.143152   -3.351588    0.077443
 H    7.370304   -0.007335   -0.677365
 H    7.361110   -1.758713   -0.329095
 H    7.083471   -0.587923    0.993091
 H    3.499976    2.253215    1.185029
 H    1.748008    2.417911    1.303007
 H    3.415221    2.481477   -1.269065
 H    1.663094    2.538120   -1.249411
 H    1.721901    4.653752    0.104534
 H    2.599783    4.847786   -1.428357
 H    3.491201    4.620237    0.083896
 H   -0.924219   -1.596440    1.274226
 H   -0.114925   -3.157404    1.198472
 H   -1.031852   -1.590371   -1.263310
 H   -0.323156   -3.195645   -1.265607
 H   -2.976462   -2.428820    0.093814
 H   -2.838931   -3.289461   -1.446715
 H   -2.293715   -4.065460    0.050531
 H   -0.281248    0.818637   -1.054833
 H   -2.142210    0.628350    2.158279
 H   -4.491054   -0.130451    2.331977
 H   -4.791799   -0.152662   -1.947105
 H   -2.459253    0.603922   -2.114912
 H   -6.469491   -0.814513    1.386962
 H   -5.688949   -2.805366    0.093204
 H   -6.217843   -2.037456   -1.411187
 H   -7.412358   -2.474045   -0.180175
 H   -7.150467    1.276223    0.212211
 H   -8.271820   -0.057378   -0.130972
 H   -7.080791    0.435054   -1.344332
 H   -1.056407    4.129894   -1.110423
