74 
1zhy_ligand_ani-2x.xyz
 C   -4.601059    1.744561   -0.931122
 C   -6.110458    1.875287   -1.143783
 C   -6.643167    0.712343   -1.978081
 C   -6.288114   -0.614032   -1.322828
 C   -4.803871   -0.745426   -1.061998
 C   -4.136041   -1.820990   -1.474445
 C   -2.675502   -2.061678   -1.222832
 C   -2.095699   -1.140002   -0.141539
 C   -2.603022    0.301541   -0.363127
 C   -4.162282    0.405386   -0.282717
 C   -1.876558    1.320983    0.540431
 C   -0.341343    1.196840    0.520322
 C    0.122813   -0.227906    0.841812
 C   -0.568537   -1.155779   -0.184980
 C    0.164879   -2.490802   -0.040067
 C    1.624464   -2.079322    0.281562
 C    1.613562   -0.545139    0.534970
 C   -0.225346   -0.607473    2.288126
 C   -4.663909    0.346788    1.172466
 C    2.677239   -0.103363    1.553275
 C    2.646670    1.403133    1.836212
 C    4.099147   -0.535236    1.125490
 C    4.656019    0.177555   -0.110452
 C    6.053244   -0.311429   -0.491249
 C    6.622769    0.304880   -1.775223
 C    6.794107    1.821512   -1.664363
 C    7.955850   -0.355307   -2.131253
 O   -8.056299    0.746129   -2.102133
 H   -4.106888    1.826516   -1.910438
 H   -4.244123    2.583232   -0.321941
 H   -6.642220    1.896522   -0.183078
 H   -6.333759    2.827104   -1.644922
 H   -6.171947    0.747846   -2.974904
 H   -6.852451   -0.679774   -0.382285
 H   -6.645002   -1.436839   -1.954676
 H   -4.664617   -2.575670   -2.059170
 H   -2.134243   -1.908374   -2.167882
 H   -2.519435   -3.115310   -0.961581
 H   -2.442686   -1.506262    0.835686
 H   -2.336870    0.551673   -1.404800
 H   -2.144241    2.340965    0.241971
 H   -2.215181    1.211252    1.578559
 H    0.078757    1.920602    1.226598
 H    0.032797    1.474813   -0.476108
 H   -0.291062   -0.748205   -1.174385
 H    0.092971   -3.105681   -0.944122
 H   -0.262520   -3.080053    0.781444
 H    1.989297   -2.616339    1.165468
 H    2.308873   -2.327880   -0.537909
 H    1.829185   -0.037574   -0.419887
 H    0.235842    0.089571    2.996515
 H   -1.303162   -0.580158    2.469274
 H    0.120379   -1.613983    2.550251
 H   -4.292740   -0.548005    1.685539
 H   -5.755758    0.308765    1.209364
 H   -4.350740    1.229053    1.741170
 H    2.473424   -0.633753    2.495125
 H    2.596951    1.979294    0.903828
 H    1.795624    1.696192    2.457612
 H    3.552896    1.716100    2.368305
 H    4.780633   -0.344831    1.967885
 H    4.124272   -1.621764    0.960896
 H    3.983207    0.034007   -0.967725
 H    4.687801    1.257972    0.080944
 H    6.029846   -1.404678   -0.613940
 H    6.751508   -0.114657    0.338478
 H    5.911241    0.099104   -2.590295
 H    7.475230    2.072013   -0.840215
 H    5.843745    2.334161   -1.481175
 H    7.221317    2.234850   -2.585043
 H    7.850117   -1.439546   -2.252146
 H    8.363470    0.050973   -3.063639
 H    8.693970   -0.177385   -1.338546
 H   -8.293666    1.571089   -2.544975
