30 
1zkl_ligand_dft.xyz
 N   44.028435   15.072929   46.225757
 C   44.523583   16.116437   45.458763
 N   44.561565   17.239575   46.109389
 C   44.074331   16.938773   47.364083
 C   43.744990   15.609426   47.444860
 N   43.221447   14.986611   48.542385
 C   43.013313   15.749133   49.695076
 N   43.341593   17.097273   49.622161
 C   43.883629   17.805080   48.506743
 O   44.132650   18.989269   48.574811
 O   42.565488   15.247568   50.710904
 C   43.100964   17.852814   50.849242
 C   42.944740   13.555988   48.565744
 C   44.202018   12.682237   48.683711
 C   45.017413   13.040886   49.926607
 C   43.785157   11.210111   48.689330
 H   43.918122   14.112677   45.941201
 H   44.832190   15.961308   44.434707
 H   43.393630   18.882449   50.655447
 H   42.044411   17.800017   51.119281
 H   43.691497   17.435427   51.667410
 H   42.291871   13.387963   49.424280
 H   42.377157   13.301770   47.660769
 H   44.835446   12.856032   47.800849
 H   45.887214   12.382231   50.016920
 H   45.382628   14.071760   49.883156
 H   44.409882   12.940239   50.832237
 H   44.663493   10.558240   48.722873
 H   43.169178   10.987001   49.568473
 H   43.204966   10.947777   47.796829
