45 
1zky_ligand_aiqm1.xyz
 C   -0.063553   -1.985315   -0.060085
 C   -0.942293   -0.756958   -0.325338
 C   -0.275129    0.295947   -1.226149
 C   -1.313335    1.325855   -1.630460
 C   -1.113834    2.031749   -2.941748
 C   -2.323418    1.617939   -0.802323
 C   -2.592247    0.938905    0.522411
 C   -3.962004    0.243557    0.429011
 C   -1.442677   -0.021789    0.931746
 C   -1.912001   -1.023078    1.985605
 O   -2.466793   -0.298498    3.082662
 C   -0.268116    0.749819    1.567696
 O    0.416400    1.624004    0.691261
 C    0.871231    1.047940   -0.521915
 C    2.159921    0.265347   -0.344066
 C    2.697655   -0.497256   -1.389625
 C    3.901370   -1.179722   -1.252779
 C    4.603934   -1.101138   -0.056247
 O    5.780280   -1.794624    0.032052
 C    4.103617   -0.335845    0.989425
 C    2.896262    0.342274    0.841192
 H    0.741922   -1.795277    0.651248
 H    0.400259   -2.319522   -0.990741
 H   -0.650918   -2.820627    0.329373
 H   -1.828847   -1.120422   -0.863062
 H    0.111012   -0.183402   -2.126970
 H   -0.994859    1.310062   -3.753996
 H   -1.963509    2.676888   -3.165957
 H   -0.214392    2.652304   -2.929528
 H   -3.043983    2.375786   -1.102143
 H   -2.668554    1.713332    1.295278
 H   -4.310913   -0.104986    1.400061
 H   -3.930577   -0.610589   -0.255710
 H   -4.700208    0.948838    0.039236
 H   -2.644888   -1.715639    1.556750
 H   -1.059914   -1.619799    2.330798
 H   -2.740004   -0.928410    3.749421
 H   -0.639166    1.381855    2.373927
 H    0.433962    0.024188    2.005033
 H    1.117186    1.921887   -1.134577
 H    2.174441   -0.564568   -2.337456
 H    4.305796   -1.767274   -2.066098
 H    6.165396   -1.635962    0.896286
 H    4.655578   -0.257660    1.920698
 H    2.530110    0.949385    1.656203
