84 
1zm6_ligand_aiqm1.xyz
 N    0.689664   -1.302696   -0.855749
 C    2.019306   -0.891054   -1.446702
 C    2.435492    0.507626   -0.914232
 O    2.304911    1.505603   -1.605946
 C    2.008574   -0.983300   -2.981682
 C    0.699039   -0.729993   -3.742003
 C    0.987650   -0.900247   -5.231900
 C    0.101074    0.650709   -3.480326
 N    2.990746    0.491588    0.316739
 C    3.331491    1.704054    1.095737
 C    2.024977    2.321035    1.619493
 O    1.707519    2.228365    2.794148
 C    4.238017    2.675642    0.355704
 N    1.236561    2.905371    0.675844
 C   -0.187265    3.050012    0.949143
 C   -0.740675    1.609827    0.959632
 O   -0.693803    0.917272   -0.060890
 C   -0.884484    3.973724   -0.060964
 C   -2.385824    4.067601    0.230745
 C   -0.661163    3.585355   -1.522260
 C   -2.734437    4.590492    1.620745
 N   -1.186982    1.161748    2.153130
 C   -1.443294   -0.211102    2.552852
 C   -0.169168   -1.072508    2.494578
 O    0.850051   -0.733281    1.898130
 C   -2.701664   -0.861133    1.927720
 C   -2.635426   -1.376272    0.510748
 C   -2.122554   -2.649026    0.240008
 C   -3.153301   -0.643053   -0.557148
 C   -2.089989   -3.161711   -1.052068
 C   -3.116596   -1.137837   -1.858931
 C   -2.588278   -2.402192   -2.107592
 O   -2.487468   -2.942769   -3.356561
 N   -0.207805   -2.228688    3.186299
 C    0.959712   -3.058440    3.365083
 C    1.371572   -3.777248    2.083898
 O    2.285522   -4.715536    2.327787
 C    0.681605   -4.032432    4.499972
 O   -0.485518   -4.744388    4.108556
 O    0.985903   -3.510100    0.970138
 H    0.125077   -1.771495   -1.566009
 H    0.814665   -1.954057   -0.071278
 H    0.135354   -0.485279   -0.507888
 H    2.761590   -1.599887   -1.082276
 H    2.364352   -1.981218   -3.253714
 H    2.747871   -0.270763   -3.346197
 H   -0.037313   -1.499180   -3.457721
 H    1.689376   -0.134328   -5.565345
 H    1.415880   -1.879132   -5.448214
 H    0.074518   -0.793223   -5.814399
 H    0.851045    1.416714   -3.669023
 H   -0.738641    0.826853   -4.153656
 H   -0.256038    0.781482   -2.458489
 H    2.780940   -0.316901    0.885719
 H    3.848817    1.342697    1.982617
 H    5.152305    2.175407    0.040262
 H    3.753408    3.097200   -0.520077
 H    4.501661    3.490421    1.026762
 H    1.491494    2.721160   -0.284887
 H   -0.292295    3.478606    1.943210
 H   -0.438241    4.958939    0.108294
 H   -2.824355    4.730443   -0.514725
 H   -2.836841    3.081811    0.067503
 H   -1.093613    2.605549   -1.725174
 H    0.389492    3.555513   -1.811650
 H   -1.156250    4.308537   -2.169396
 H   -2.225010    5.533764    1.821772
 H   -2.463919    3.889409    2.416916
 H   -3.805251    4.771787    1.702283
 H   -0.984007    1.779732    2.922800
 H   -1.672728   -0.145752    3.613896
 H   -3.499964   -0.125365    2.013292
 H   -2.973493   -1.686931    2.587810
 H   -1.734699   -3.253966    1.052363
 H   -3.572824    0.340842   -0.383780
 H   -1.708335   -4.154362   -1.249730
 H   -3.516889   -0.542079   -2.669251
 H   -2.982002   -2.408176   -3.979954
 H   -1.063152   -2.560985    3.599804
 H    1.814924   -2.434810    3.629871
 H    2.511558   -5.132545    1.485693
 H    1.532714   -4.694234    4.634853
 H    0.506051   -3.459244    5.410562
 H   -0.620726   -5.484077    4.697577
