39 
1zz1_ligand_ani-2x.xyz
 O   -3.962537  -16.059182   43.201608
 O   -2.232661  -14.674809   41.852588
 N   -4.386635  -15.051624   42.342386
 C   -3.412467  -14.471130   41.586722
 C   -3.890199  -13.511421   40.525543
 C   -3.807875  -12.071136   41.049472
 C   -4.085293  -11.012778   39.980664
 C   -5.469794  -11.122738   39.343984
 C   -5.770360   -9.984693   38.372880
 C   -7.154812  -10.100729   37.747712
 C   -7.467306   -8.941127   36.805968
 O   -6.704024   -8.007301   36.640315
 N   -8.684589   -9.059834   36.177781
 C   -9.294195   -8.184813   35.256372
 C  -10.545415   -8.553021   34.749033
 C  -11.202648   -7.736759   33.838092
 C  -10.621417   -6.542711   33.421427
 C   -9.377690   -6.180679   33.928778
 C   -8.706136   -6.987006   34.841634
 H   -2.989067  -15.991436   43.106020
 H   -5.286947  -15.282308   41.946858
 H   -4.912504  -13.760139   40.217643
 H   -3.231988  -13.633112   39.660494
 H   -2.807902  -11.919972   41.472558
 H   -4.521595  -11.955801   41.876112
 H   -3.321228  -11.078479   39.191884
 H   -3.975303  -10.017477   40.432289
 H   -6.233295  -11.135648   40.136656
 H   -5.560316  -12.080300   38.812157
 H   -5.020066   -9.960313   37.573421
 H   -5.695594   -9.016409   38.882063
 H   -7.928167  -10.128559   38.529580
 H   -7.251219  -11.042769   37.188867
 H   -9.222539   -9.885179   36.395488
 H  -11.007634   -9.484941   35.069131
 H  -12.174030   -8.036963   33.453071
 H  -11.131199   -5.900259   32.709007
 H   -8.912511   -5.250170   33.611168
 H   -7.738442   -6.703478   35.234774
