56 
1zzz_ligand_dft.xyz
 N   -3.212291    1.996209    0.586780
 C   -3.656575    0.599060    0.648128
 C   -4.350987    0.173655   -0.641228
 C   -4.627436   -1.324022   -0.583046
 C   -2.428753   -0.259694    0.965090
 C   -3.318527   -2.092593   -0.485848
 O   -1.496481    0.215536    1.607625
 N   -2.434313   -1.558564    0.556703
 C   -1.213872   -2.289769    0.796238
 C   -0.094190   -1.839199   -0.150480
 O   -0.317911   -1.083813   -1.099666
 C    2.370994    0.411436    0.334159
 C    1.967583    1.117004   -0.966897
 N    1.120651   -2.332569    0.125198
 C    2.327757   -2.004336   -0.624260
 C    3.148507   -3.284734   -0.755243
 O    3.345692   -3.775259    0.557803
 C    3.131295   -0.891373    0.069728
 C    0.075224    2.641454   -0.649615
 N    1.392849    2.427772   -0.651153
 C    2.315652    3.392580   -0.026004
 C    3.570731    2.675061    0.476113
 C    3.198747    1.388948    1.219214
 N   -0.396992    3.850644   -0.256697
 N   -0.818758    1.728431   -1.020690
 H   -1.783645    1.907984   -0.701498
 H   -2.673267    2.184435    1.430903
 H   -4.026483    2.605248    0.595974
 H   -4.353952    0.433419    1.486274
 H   -5.279609    0.739639   -0.769936
 H   -3.705071    0.407256   -1.497581
 H   -5.262168   -1.554467    0.280954
 H   -5.162999   -1.658487   -1.475740
 H   -2.784590   -2.053276   -1.444114
 H   -3.514084   -3.144084   -0.252176
 H   -0.893276   -2.135745    1.829714
 H   -1.404580   -3.357863    0.650694
 H    1.441866    0.171456    0.865027
 H    1.258299    0.526450   -1.542756
 H    2.833596    1.282047   -1.616170
 H    1.256172   -2.947888    0.918140
 H    2.009867   -1.691863   -1.622750
 H    4.102069   -3.059999   -1.252395
 H    2.596218   -4.007232   -1.371668
 H    3.816752   -4.614784    0.515397
 H    4.022730   -0.679550   -0.537927
 H    3.494637   -1.287654    1.024425
 H    2.574257    4.185074   -0.739251
 H    1.809331    3.844634    0.833815
 H    4.108465    3.359568    1.138279
 H    4.248742    2.458572   -0.356077
 H    4.113038    0.900938    1.570992
 H    2.624774    1.650877    2.115163
 H   -1.386545    4.013816   -0.369701
 H    0.187160    4.667936   -0.333020
 H   -0.573029    0.737499   -1.036380
