56 
1zzz_ligand_ani-2x.xyz
 N   -3.270261    2.078206    0.209510
 C   -3.715290    0.725061    0.533939
 C   -4.491624    0.110965   -0.626116
 C   -4.674099   -1.385132   -0.411704
 C   -2.477845   -0.084308    0.927609
 C   -3.313944   -2.061643   -0.363013
 O   -1.569284    0.455515    1.550182
 N   -2.440488   -1.422095    0.621448
 C   -1.188961   -2.095496    0.889376
 C   -0.094035   -1.791617   -0.145847
 O   -0.305443   -1.198204   -1.200372
 C    2.604183    0.401569    0.319594
 C    2.033470    1.102874   -0.914483
 N    1.133782   -2.242325    0.202855
 C    2.333529   -2.022578   -0.590391
 C    3.062507   -3.354845   -0.735339
 O    3.257724   -3.872749    0.572844
 C    3.254759   -0.954322    0.020749
 C    0.021306    2.546421   -0.717168
 N    1.324079    2.321002   -0.490577
 C    2.070298    3.231599    0.399116
 C    3.514332    2.783899    0.551508
 C    3.610530    1.333921    1.033410
 N   -0.562810    3.668808   -0.211531
 N   -0.750688    1.727032   -1.451049
 H   -1.744531    1.840398   -1.240291
 H   -2.672830    2.391995    0.972965
 H   -4.069514    2.705721    0.173093
 H   -4.363178    0.702813    1.427852
 H   -5.459983    0.616589   -0.715839
 H   -3.942825    0.300547   -1.558764
 H   -5.215800   -1.567634    0.525168
 H   -5.269992   -1.826336   -1.218906
 H   -2.831841   -2.038789   -1.351743
 H   -3.415053   -3.115313   -0.077615
 H   -0.831819   -1.803793    1.882482
 H   -1.370329   -3.178066    0.900507
 H    1.752738    0.240434    0.996073
 H    1.366796    0.445389   -1.469407
 H    2.841477    1.383262   -1.602217
 H    1.256916   -2.812096    1.029212
 H    2.000648   -1.696693   -1.579045
 H    4.023713   -3.199523   -1.249777
 H    2.454081   -4.040090   -1.343315
 H    3.726512   -4.712102    0.498089
 H    4.104586   -0.804939   -0.662699
 H    3.676710   -1.353293    0.951610
 H    2.055377    4.249042   -0.016585
 H    1.587926    3.266942    1.386674
 H    4.023524    3.454786    1.252246
 H    4.027464    2.898166   -0.410851
 H    4.636922    0.979198    0.875666
 H    3.428739    1.286268    2.114157
 H   -1.392426    3.981705   -0.701152
 H    0.033601    4.429018    0.084464
 H   -0.489643    0.741905   -1.483070
