12 
223l_ligand_ani-2x.xyz
 C   29.408736    7.918751   -1.714885
 C   30.168200    7.368019   -2.743912
 C   31.393339    7.934887   -3.085297
 C   31.859251    9.052395   -2.397529
 C   31.100007    9.602898   -1.368328
 C   29.874590    9.036239   -1.027217
 H   28.451763    7.476058   -1.448452
 H   29.804371    6.495139   -3.281006
 H   31.986368    7.504832   -3.889122
 H   32.816199    9.495073   -2.664146
 H   31.463851   10.475642   -0.831018
 H   29.281526    9.466467   -0.223489
