27 
2a2g_ligand_xtb.xyz
 C   -0.121942   -0.850195    1.018121
 C    2.106883   -0.143906   -0.158003
 C   -0.143367    0.364497   -1.166436
 C    1.328476    0.761404   -1.094417
 C   -0.738366    0.325856    0.243405
 C    1.383966   -0.916024    0.861272
 C    3.534558    0.289742    0.097406
 O    1.892994   -1.525323   -0.300928
 C   -2.244653    0.227323    0.249095
 C   -2.973657    0.989778    1.048968
 C   -2.872929   -0.768671   -0.677648
 H   -0.368598   -0.759744    2.077152
 H   -0.540153   -1.791684    0.655465
 H   -0.223942   -0.619709   -1.629362
 H   -0.682265    1.086748   -1.782468
 H    1.778429    0.712165   -2.089017
 H    1.421810    1.788163   -0.731240
 H   -0.455359    1.252021    0.757170
 H    1.926641   -1.188232    1.765242
 H    4.060318    0.416848   -0.846666
 H    4.056124   -0.461468    0.685039
 H    3.546197    1.235355    0.635624
 H   -2.528035    1.715707    1.708281
 H   -4.048041    0.920839    1.078805
 H   -2.391132   -1.740605   -0.593273
 H   -2.773209   -0.437522   -1.710720
 H   -3.930648   -0.883462   -0.455667
