27 
2a2g_ligand_aiqm1.xyz
 C   -0.103793   -0.889947    0.986234
 C    2.108131   -0.086263   -0.151531
 C   -0.145524    0.487206   -1.119438
 C    1.324890    0.877611   -1.010655
 C   -0.748422    0.310152    0.277522
 C    1.394980   -0.943313    0.805081
 C    3.557267    0.241948    0.069048
 O    1.871788   -1.471053   -0.449820
 C   -2.258480    0.201504    0.245137
 C   -3.013293    1.087437    0.906363
 C   -2.871833   -0.907721   -0.564711
 H   -0.330375   -0.857454    2.054176
 H   -0.523025   -1.822723    0.599787
 H   -0.240515   -0.449208   -1.673750
 H   -0.696038    1.254058   -1.669453
 H    1.794196    0.923416   -1.997212
 H    1.415618    1.872239   -0.559890
 H   -0.504462    1.213102    0.856627
 H    1.950535   -1.330608    1.657845
 H    4.094026    0.197099   -0.880397
 H    4.008092   -0.478451    0.751688
 H    3.666802    1.245772    0.484734
 H   -2.565207    1.892260    1.477307
 H   -4.093790    1.027542    0.890775
 H   -2.545921   -1.890627   -0.219799
 H   -2.586237   -0.836036   -1.616168
 H   -3.959311   -0.868041   -0.504299
