54 
2a3w_ligand_xtb.xyz
 O   10.657544   17.806371  -35.157894
 C   11.061126   16.727860  -35.804955
 O   12.167812   16.572713  -36.221865
 C    9.947203   15.639199  -35.945138
 O    8.721032   16.351185  -35.921519
 C    7.580446   15.536493  -35.745690
 C   10.157389   14.844632  -37.232261
 O   10.109807   14.870420  -34.771566
 C    9.057525   13.972225  -34.495680
 C    7.703036   14.684199  -34.477277
 O    7.656247   15.503370  -33.313093
 C    6.418290   15.891817  -32.916106
 O    5.394999   15.556001  -33.457421
 N    6.510951   16.718790  -31.852890
 C    5.341388   17.157504  -31.134843
 C    5.002054   16.216627  -29.963060
 N    3.838604   16.660396  -29.238858
 C    3.943260   17.410188  -28.121166
 O    4.967394   17.661823  -27.538506
 O    2.712621   17.811488  -27.711566
 C    2.688466   18.608953  -26.531043
 C    3.085779   20.057778  -26.841501
 O    2.119464   20.681061  -27.660845
 C    1.253072   18.605562  -26.005489
 O    0.394168   19.320084  -26.868659
 C    0.804305   20.650087  -27.149393
 C    0.576580   21.606081  -25.981032
 C   -0.055652   21.092724  -28.378226
 O   -0.417592   20.082166  -29.148969
 O   -0.323048   22.233455  -28.600480
 H    9.704595   17.736428  -34.963008
 H    7.430270   14.880813  -36.611912
 H    6.734689   16.221600  -35.665145
 H   11.204228   14.558658  -37.282455
 H    9.537509   13.953157  -37.266001
 H    9.919833   15.481301  -38.080374
 H    9.287649   13.563546  -33.510703
 H    9.025253   13.157046  -35.230260
 H    6.877427   13.963288  -34.441768
 H    7.417438   16.834960  -31.428213
 H    4.513199   17.168877  -31.848012
 H    5.511120   18.168081  -30.756988
 H    5.831171   16.197314  -29.251331
 H    4.825883   15.208456  -30.346099
 H    2.937513   16.604731  -29.686126
 H    3.381543   18.185958  -25.794558
 H    4.015353   20.085716  -27.411493
 H    3.227589   20.602736  -25.899697
 H    1.234240   19.031479  -24.994788
 H    0.854667   17.589790  -25.980426
 H    1.294284   21.448118  -25.180974
 H    0.670002   22.621779  -26.354790
 H   -0.429348   21.457525  -25.597581
 H   -0.140277   19.241688  -28.738505
