58 
2a3x_ligand_ani-2x.xyz
 O  -27.267805   80.320216   74.957040
 C  -25.981663   80.237038   74.596755
 O  -25.197504   81.121278   74.814647
 C  -25.586501   78.937961   73.853824
 O  -26.553454   77.967725   74.227138
 C  -26.528140   76.780024   73.440828
 C  -24.178887   78.530865   74.250362
 O  -25.689767   79.276154   72.489757
 C  -25.618033   78.161505   71.613786
 C  -26.676561   77.132183   71.976137
 O  -27.992819   77.699838   71.836189
 C  -28.468707   77.800616   70.576618
 O  -27.872074   77.413296   69.591437
 N  -29.706290   78.387910   70.545927
 C  -30.333898   79.046376   71.682297
 C  -30.347743   80.558252   71.454808
 C  -30.300258   78.678663   69.250547
 C  -30.316695   80.190484   69.020556
 N  -30.942243   80.846712   70.157423
 C  -32.149582   81.464622   69.971817
 O  -32.684367   81.607347   68.889772
 O  -32.676392   81.897368   71.137640
 C  -33.953521   82.557239   71.056807
 C  -35.062432   81.540315   70.843784
 O  -35.124485   80.654346   71.956627
 C  -34.163351   83.232359   72.396677
 O  -34.293857   82.267099   73.430600
 C  -35.301398   81.310774   73.203577
 C  -36.697006   81.888834   73.360816
 C  -35.062691   80.236147   74.292886
 O  -34.397879   79.148674   73.888167
 O  -35.433382   80.375763   75.427591
 H  -27.680540   79.461205   74.763820
 H  -27.360695   76.159623   73.778611
 H  -25.594029   76.226968   73.602440
 H  -23.841239   77.651098   73.696580
 H  -23.504091   79.365278   74.049175
 H  -24.162518   78.306184   75.319633
 H  -24.624618   77.694948   71.653951
 H  -25.779095   78.542579   70.606656
 H  -26.596625   76.250771   71.336314
 H  -29.799006   78.789466   72.597050
 H  -31.367158   78.683694   71.767279
 H  -29.317326   80.937964   71.456473
 H  -30.908078   81.072176   72.235822
 H  -31.326661   78.290885   69.233182
 H  -29.714287   78.162054   68.488453
 H  -30.883137   80.456452   68.126229
 H  -29.289118   80.560729   68.911546
 H  -33.930867   83.282966   70.240600
 H  -34.864623   80.939401   69.956159
 H  -36.020726   82.057682   70.707519
 H  -35.050329   83.878083   72.350188
 H  -33.303119   83.847503   72.662985
 H  -36.874031   82.713247   72.665619
 H  -37.431365   81.101148   73.174821
 H  -36.810444   82.250764   74.384751
 H  -34.282688   79.218550   72.924905
