58 
2a3x_ligand_dft.xyz
 O   -1.508316    2.442913   -0.053563
 C   -2.406840    2.503923    0.931593
 O   -2.187868    3.012233    1.996236
 C   -3.747449    1.795606    0.605494
 O   -3.834875    1.798351   -0.811028
 C   -4.749082    0.871613   -1.378473
 C   -4.922471    2.507214    1.254594
 O   -3.548319    0.495964    1.116791
 C   -4.474454   -0.475021    0.663168
 C   -4.463701   -0.526914   -0.860916
 O   -3.159229   -0.842052   -1.341167
 C   -2.694549   -2.081912   -1.050366
 O   -3.412001   -2.993279   -0.684627
 N   -1.344442   -2.160208   -1.235949
 C   -0.512160   -0.958185   -1.257767
 C   -0.094570   -0.589450    0.165266
 C   -0.665746   -3.311962   -0.648937
 C   -0.226950   -2.982304    0.779564
 N    0.541235   -1.745377    0.792623
 C    1.749625   -1.716716    1.412420
 O    2.298905   -2.666267    1.940804
 O    2.290942   -0.477347    1.356586
 C    3.650327   -0.336646    1.759043
 C    4.573668   -1.006216    0.751067
 O    4.357804   -0.439439   -0.531526
 C    3.918736    1.158469    1.709522
 O    3.740317    1.633949    0.388414
 C    4.480695    0.973795   -0.613175
 C    5.929950    1.420755   -0.658788
 C    3.710859    1.347860   -1.906970
 O    2.656330    0.556588   -2.133991
 O    4.002882    2.277456   -2.606403
 H   -1.966040    2.060567   -0.825599
 H   -4.604936    0.933246   -2.458102
 H   -5.784291    1.151933   -1.142034
 H   -5.862690    1.976122    1.082413
 H   -4.742890    2.576109    2.328285
 H   -5.013921    3.515496    0.843724
 H   -5.493672   -0.257791    1.013053
 H   -4.158166   -1.423956    1.094503
 H   -5.195789   -1.251341   -1.229647
 H   -1.056070   -0.141001   -1.725406
 H    0.369479   -1.172141   -1.871221
 H   -0.987662   -0.303959    0.737793
 H    0.591485    0.255348    0.160463
 H    0.206794   -3.545857   -1.268282
 H   -1.347354   -4.162074   -0.656976
 H    0.394758   -3.773954    1.198088
 H   -1.119402   -2.865579    1.410026
 H    3.801286   -0.749744    2.760613
 H    4.358788   -2.070130    0.657470
 H    5.618831   -0.882429    1.066901
 H    4.933590    1.361947    2.081331
 H    3.202450    1.710217    2.319951
 H    6.440828    1.207542    0.284738
 H    6.452861    0.901477   -1.465142
 H    5.964027    2.494620   -0.847328
 H    2.712249   -0.161591   -1.476570
