58 
2a3x_ligand_xtb.xyz
 O  -27.858959   80.358395   74.425437
 C  -26.557362   80.500306   74.235434
 O  -25.962380   81.519422   74.405094
 C  -25.876393   79.201316   73.693421
 O  -26.679807   78.132581   74.170832
 C  -26.506814   76.900338   73.500867
 C  -24.429256   79.117207   74.169748
 O  -26.000839   79.367767   72.295957
 C  -25.767902   78.199460   71.536836
 C  -26.714434   77.084144   71.997656
 O  -28.070006   77.483312   71.832458
 C  -28.505955   77.601737   70.550988
 O  -27.857916   77.258111   69.591682
 N  -29.760913   78.102802   70.493063
 C  -30.435698   78.694743   71.628999
 C  -30.304156   80.222362   71.559241
 C  -30.275336   78.553434   69.215275
 C  -30.170611   80.081610   69.132772
 N  -30.814922   80.678477   70.284101
 C  -31.942248   81.401166   70.124235
 O  -32.422315   81.701707   69.056356
 O  -32.474112   81.776212   71.316728
 C  -33.662324   82.555730   71.251688
 C  -34.864214   81.670639   70.905233
 O  -35.068602   80.708687   71.920741
 C  -33.890547   83.133332   72.649786
 O  -34.176796   82.104936   73.574018
 C  -35.246902   81.252846   73.219276
 C  -36.621554   81.881718   73.423922
 C  -35.044631   80.042302   74.187454
 O  -34.158556   79.172072   73.728829
 O  -35.604140   79.940405   75.234829
 H  -28.101322   79.420258   74.303356
 H  -27.264831   76.237856   73.922074
 H  -25.509598   76.484752   73.688775
 H  -23.878063   78.339246   73.648700
 H  -23.957228   80.078359   73.986949
 H  -24.422098   78.910930   75.236626
 H  -24.729732   77.856181   71.624428
 H  -25.966822   78.475794   70.500946
 H  -26.519271   76.161539   71.440490
 H  -30.008062   78.309451   72.551951
 H  -31.491775   78.409743   71.578873
 H  -29.246967   80.501676   71.632956
 H  -30.854740   80.697884   72.368479
 H  -31.320523   78.242699   69.129639
 H  -29.687738   78.085207   68.425344
 H  -30.661841   80.457750   68.234890
 H  -29.116012   80.376073   69.124437
 H  -33.549076   83.344468   70.499734
 H  -34.676762   81.105486   69.990888
 H  -35.754243   82.295581   70.766953
 H  -34.698250   83.875245   72.609605
 H  -32.981378   83.603569   73.026719
 H  -36.702493   82.844213   72.926533
 H  -37.378954   81.207774   73.032813
 H  -36.776650   82.012917   74.491009
 H  -33.894773   79.435475   72.827478
