49 
2adm_ligand_dft.xyz
 N  -27.299437   25.974003   46.667788
 C  -28.275160   26.580599   45.768068
 C  -29.659945   25.865478   45.762963
 O  -29.755536   24.786912   46.350709
 O  -30.558313   26.476641   45.091424
 C  -27.675731   26.596436   44.344431
 C  -28.681518   26.812952   43.215450
 S  -29.759652   28.249304   43.571850
 C  -31.329161   27.799282   42.803559
 C  -29.110255   29.382248   42.281259
 C  -29.713060   30.771648   42.364525
 O  -29.507217   31.287799   43.675190
 C  -29.031430   31.754893   41.387939
 O  -29.636847   31.816995   40.133062
 C  -29.092899   33.073373   42.174451
 O  -30.353532   33.646825   41.872485
 C  -29.059227   32.616448   43.646872
 N  -27.762113   32.720544   44.288452
 C  -27.485748   33.471152   45.414458
 N  -26.264818   33.355000   45.849796
 C  -25.691375   32.457713   44.970708
 C  -24.400582   31.897380   44.902648
 N  -23.429800   32.226507   45.775773
 N  -24.127568   31.019950   43.926116
 C  -25.097704   30.716355   43.059965
 N  -26.350101   31.169004   43.014616
 C  -26.595382   32.042301   44.000723
 H  -27.608621   25.002906   46.755873
 H  -27.444062   26.357243   47.598573
 H  -28.447452   27.620249   46.072718
 H  -26.874120   27.342864   44.295906
 H  -27.205202   25.623505   44.160037
 H  -28.190079   26.993318   42.254345
 H  -29.369123   25.972186   43.131068
 H  -31.957148   28.691731   42.770451
 H  -31.156785   27.416700   41.794969
 H  -31.752711   27.041643   43.463876
 H  -28.036167   29.467496   42.478654
 H  -29.269331   28.962454   41.282104
 H  -30.791049   30.755357   42.149965
 H  -27.987565   31.465697   41.253893
 H  -30.380564   32.432461   40.226187
 H  -28.269227   33.752243   41.933114
 H  -30.318671   34.598400   42.016255
 H  -29.736034   33.244536   44.236491
 H  -28.251801   34.088855   45.866380
 H  -22.569307   31.702514   45.756135
 H  -23.656219   32.777968   46.587828
 H  -24.824650   29.999931   42.288899
