49 
2adm_ligand_ani-2x.xyz
 N  -27.770928   28.701328   46.713402
 C  -28.735491   28.273461   45.719860
 C  -29.672807   27.203211   46.387395
 O  -29.621686   27.198381   47.635541
 O  -30.385971   26.518642   45.635474
 C  -28.005467   27.737704   44.486168
 C  -28.809834   26.952886   43.445514
 S  -30.283702   27.803023   42.716225
 C  -30.672436   26.682385   41.340744
 C  -29.557094   29.255763   41.835697
 C  -29.902693   30.594763   42.477816
 O  -29.367037   30.638694   43.800776
 C  -29.255506   31.792869   41.766659
 O  -29.974231   32.262480   40.660116
 C  -29.117705   32.817632   42.892699
 O  -30.348960   33.526106   42.956049
 C  -28.939855   31.945805   44.147114
 N  -27.571024   31.918218   44.616267
 C  -27.092847   32.396753   45.821636
 N  -25.829405   32.157199   46.037027
 C  -25.429191   31.472699   44.903979
 C  -24.193959   30.918959   44.513655
 N  -23.111695   30.999533   45.312827
 N  -24.101899   30.287551   43.332386
 C  -25.200259   30.218148   42.573327
 N  -26.422885   30.699394   42.825574
 C  -26.485164   31.317975   44.007754
 H  -28.189865   28.460793   47.614322
 H  -27.614166   29.703854   46.645873
 H  -29.379351   29.119832   45.427552
 H  -27.482631   28.578851   44.016070
 H  -27.212419   27.065717   44.841734
 H  -28.147601   26.703268   42.605978
 H  -29.200408   26.034202   43.885390
 H  -31.435712   27.137375   40.705578
 H  -29.767521   26.502880   40.746162
 H  -31.037170   25.731092   41.735425
 H  -28.468990   29.123626   41.824540
 H  -29.916864   29.230967   40.799737
 H  -30.994431   30.742800   42.521977
 H  -28.251059   31.501920   41.451682
 H  -30.628698   32.879859   41.023066
 H  -28.274736   33.493944   42.723363
 H  -30.189932   34.402808   43.324129
 H  -29.543657   32.314202   44.981663
 H  -27.749432   32.924918   46.505096
 H  -22.219673   30.681467   44.968846
 H  -23.165665   31.554742   46.153038
 H  -25.070292   29.697320   41.626100
