38 
2agv_ligand_aiqm1.xyz
 O    7.390528  -13.778679   11.592406
 O    2.001854  -13.242103   10.568948
 C    6.037171  -13.653719   11.353338
 C    5.605114  -13.014979   10.184514
 C    4.228800  -12.932064   10.021355
 C    3.315218  -13.440271   10.941144
 C    3.745862  -14.077837   12.108482
 C    5.131637  -14.162010   12.273237
 C    6.583629  -12.445678    9.154023
 C    7.456939  -11.358656    9.799666
 C    7.466639  -13.568566    8.587848
 C    5.846227  -11.800841    7.972123
 C    2.785286  -14.654682   13.153507
 C    1.917855  -15.768226   12.535607
 C    3.535843  -15.294844   14.328859
 C    1.907506  -13.540396   13.755250
 H    7.504520  -14.236718   12.429051
 H    1.404998  -13.609557   11.223142
 H    3.800826  -12.456867    9.150633
 H    5.541509  -14.642551   13.153211
 H    8.035596  -11.758644   10.629820
 H    8.147552  -10.954731    9.053305
 H    6.833624  -10.539162   10.166239
 H    8.157186  -13.151767    7.848535
 H    8.045664  -14.049589    9.373549
 H    6.850223  -14.322423    8.091660
 H    5.219164  -10.965002    8.290020
 H    6.586020  -11.412249    7.269759
 H    5.226308  -12.522576    7.435761
 H    1.323229  -15.441068   11.681200
 H    2.557277  -16.584198   12.196076
 H    1.232033  -16.162697   13.290225
 H    4.163781  -16.126272   14.003448
 H    4.156685  -14.568385   14.856360
 H    2.806466  -15.687281   15.039645
 H    2.539746  -12.810882   14.263232
 H    1.313158  -13.000535   13.016466
 H    1.221028  -13.968593   14.490652
