38 
2agv_ligand_ani-2x.xyz
 O    7.388170  -13.770243   11.580727
 O    1.992418  -13.264066   10.606238
 C    6.043751  -13.645361   11.340248
 C    5.596129  -13.008663   10.179387
 C    4.215926  -12.928496   10.019644
 C    3.309704  -13.442608   10.944615
 C    3.757568  -14.082259   12.110229
 C    5.140024  -14.161317   12.267919
 C    6.580807  -12.437294    9.151409
 C    7.459850  -11.355242    9.801461
 C    7.471893  -13.557846    8.588850
 C    5.855224  -11.787989    7.964836
 C    2.786384  -14.661000   13.151096
 C    1.918314  -15.767966   12.525091
 C    3.523344  -15.309891   14.332457
 C    1.908830  -13.547085   13.751028
 H    7.490220  -14.233383   12.421227
 H    1.426109  -13.634312   11.290222
 H    3.790793  -12.449075    9.144455
 H    5.554577  -14.644372   13.149136
 H    8.061868  -11.766790   10.612325
 H    8.129657  -10.921184    9.049852
 H    6.833665  -10.553136   10.209287
 H    8.142045  -13.149246    7.823404
 H    8.073959  -14.018002    9.373117
 H    6.854357  -14.336519    8.126115
 H    5.224501  -10.950192    8.284977
 H    6.592244  -11.394606    7.256990
 H    5.232586  -12.511663    7.425561
 H    1.373639  -15.459936   11.627483
 H    2.549091  -16.614971   12.233358
 H    1.182378  -16.121031   13.255214
 H    4.155022  -16.145691   14.009045
 H    4.147290  -14.586378   14.870422
 H    2.791400  -15.706486   15.043907
 H    2.533072  -12.844311   14.313909
 H    1.362291  -12.955281   13.010405
 H    1.173601  -13.981409   14.436654
