26 
2an5_ligand_aiqm1.xyz
 O   -0.778762    2.217407    0.827479
 C   -0.616654    1.099885   -0.035994
 C    0.758955    0.484887   -0.054271
 C    1.877264    1.321676   -0.044922
 C    3.159330    0.783439   -0.095273
 C    3.327078   -0.596509   -0.162401
 C    2.215618   -1.431146   -0.182796
 C    0.919221   -0.908521   -0.128165
 C   -0.263606   -1.857555   -0.120501
 C   -1.602261   -1.173941   -0.420321
 C   -1.662262    0.083212    0.410671
 N   -3.015344    0.803036    0.341706
 H    0.042366    2.382505    1.289119
 H   -0.873789    1.435719   -1.047321
 H    1.755634    2.398179   -0.019222
 H    4.014655    1.442164   -0.090159
 H    4.317534   -1.023528   -0.205774
 H    2.352027   -2.502804   -0.243905
 H   -0.096390   -2.653234   -0.839524
 H   -0.319347   -2.333578    0.861289
 H   -2.422332   -1.849057   -0.179869
 H   -1.670632   -0.919848   -1.481409
 H   -1.504760   -0.149016    1.459075
 H   -3.758092    0.267844    0.783550
 H   -2.884008    1.699949    0.816401
 H   -3.271343    0.979235   -0.631065
