29 
2aow_ligand_aiqm1.xyz
 C   52.428543   -6.215526   31.163212
 C   51.896460   -7.630702   31.346904
 C   52.482166   -8.614767   30.361833
 C   53.077268   -8.153053   29.154203
 C   53.150718   -6.680344   28.813305
 C   52.274326   -5.807462   29.705615
 N   52.404252   -9.887100   30.705983
 C   52.894277  -10.814358   29.836618
 C   53.505736  -10.477061   28.609793
 C   53.625446   -9.089541   28.297990
 C   52.780221  -12.181760   30.192683
 C   53.238913  -13.164939   29.354087
 C   53.825809  -12.826782   28.111886
 C   53.955825  -11.510213   27.748776
 N   54.246365   -8.700677   27.114860
 H   53.485856   -6.171195   31.444777
 H   51.893239   -5.528238   31.820461
 H   50.808345   -7.630357   31.215951
 H   52.085335   -8.010253   32.351718
 H   52.869548   -6.531070   27.766726
 H   54.195958   -6.348999   28.898257
 H   52.534572   -4.757658   29.556001
 H   51.225440   -5.921956   29.414969
 H   52.312762  -12.411147   31.141473
 H   53.143926  -14.206157   29.634829
 H   54.163627  -13.610010   27.445243
 H   54.369929  -11.265128   26.778408
 H   54.576356   -7.748606   27.114616
 H   54.963682   -9.329143   26.790821
