29 
2aow_ligand_xtb.xyz
 C   52.435167   -6.232194   31.171168
 C   51.903376   -7.648056   31.342484
 C   52.490968   -8.605419   30.343340
 C   53.083565   -8.145473   29.153912
 C   53.165699   -6.675583   28.826445
 C   52.268934   -5.819272   29.715182
 N   52.404374   -9.873413   30.666938
 C   52.883032  -10.801869   29.822305
 C   53.517637  -10.466383   28.596323
 C   53.637912   -9.079827   28.285005
 C   52.750965  -12.159243   30.183213
 C   53.220399  -13.146138   29.364066
 C   53.839846  -12.818807   28.149992
 C   53.985693  -11.510885   27.775189
 N   54.240503   -8.679513   27.115867
 H   53.492368   -6.195639   31.443990
 H   51.893272   -5.548948   31.827775
 H   50.817124   -7.649456   31.209655
 H   52.103319   -8.033154   32.343366
 H   52.885624   -6.521213   27.779919
 H   54.205443   -6.343693   28.945935
 H   52.521859   -4.765459   29.579350
 H   51.225600   -5.954807   29.422071
 H   52.264802  -12.381124   31.120210
 H   53.115868  -14.184738   29.642616
 H   54.201718  -13.608210   27.507150
 H   54.454180  -11.289692   26.825804
 H   54.577932   -7.733125   27.078245
 H   54.827721   -9.352864   26.654489
