29 
2aow_ligand_ani-2x.xyz
 C   52.416632   -6.201667   31.159623
 C   51.920327   -7.630387   31.366604
 C   52.497330   -8.616365   30.364955
 C   53.082708   -8.155007   29.157419
 C   53.150694   -6.677388   28.815412
 C   52.249138   -5.811300   29.694535
 N   52.398953   -9.885635   30.697821
 C   52.889012  -10.812491   29.826798
 C   53.506203  -10.480508   28.597327
 C   53.641062   -9.088372   28.296589
 C   52.767423  -12.180503   30.186100
 C   53.217404  -13.166622   29.350808
 C   53.810927  -12.836741   28.109468
 C   53.950883  -11.524014   27.738865
 N   54.274914   -8.682938   27.129753
 H   53.478602   -6.139813   31.432182
 H   51.872598   -5.516378   31.819321
 H   50.826857   -7.662732   31.265346
 H   52.149083   -8.000185   32.369345
 H   52.897811   -6.524387   27.758085
 H   54.192697   -6.341712   28.931685
 H   52.476700   -4.750999   29.536151
 H   51.203167   -5.965512   29.398565
 H   52.301495  -12.400133   31.141423
 H   53.116202  -14.210883   29.636022
 H   54.158357  -13.629789   27.452450
 H   54.386597  -11.283895   26.770646
 H   54.610473   -7.728073   27.118481
 H   54.970651   -9.319771   26.770220
