29 
2aox_ligand_ani-2x.xyz
 C   51.717515   -5.843340   30.480137
 C   51.687524   -7.233096   31.110938
 C   52.171585   -8.327004   30.174204
 C   52.936934   -8.002200   29.024300
 C   53.306346   -6.568441   28.688596
 C   53.084875   -5.599497   29.849539
 N   51.841838   -9.553917   30.516996
 C   52.263604  -10.573944   29.717296
 C   53.021447  -10.380696   28.537863
 C   53.314396   -9.029143   28.171690
 C   51.915974  -11.895929   30.100581
 C   52.323255  -12.970498   29.357632
 C   53.102890  -12.780021   28.192336
 C   53.446782  -11.514613   27.791568
 N   54.015756   -8.756624   27.004858
 H   51.485618   -5.083646   31.235049
 H   50.943254   -5.776535   29.704258
 H   50.685221   -7.504427   31.452052
 H   52.333904   -7.252710   31.999078
 H   52.696662   -6.244506   27.831073
 H   54.351203   -6.517803   28.355397
 H   53.863888   -5.761003   30.606186
 H   53.183713   -4.565543   29.499855
 H   51.323156  -12.008191   31.002762
 H   52.052764  -13.978325   29.662907
 H   53.425248  -13.642415   27.614707
 H   54.067678  -11.382646   26.907237
 H   53.924913   -7.815041   26.644770
 H   53.917258   -9.441044   26.269534
