29 
2aox_ligand_xtb.xyz
 C   51.695649   -5.872711   30.471785
 C   51.714987   -7.252575   31.113972
 C   52.193974   -8.318082   30.167740
 C   52.940622   -7.993124   29.021254
 C   53.289880   -6.565884   28.681314
 C   53.056540   -5.605629   29.843537
 N   51.865721   -9.544808   30.495445
 C   52.270940  -10.563665   29.719356
 C   53.017717  -10.367069   28.526880
 C   53.327141   -9.021872   28.168281
 C   51.927406  -11.874578   30.111330
 C   52.311115  -12.948774   29.360187
 C   53.054896  -12.758771   28.187354
 C   53.399450  -11.498730   27.779930
 N   54.046778   -8.754424   27.027712
 H   51.465013   -5.115450   31.223421
 H   50.921978   -5.830906   29.701630
 H   50.727747   -7.538639   31.479452
 H   52.386635   -7.244684   31.977927
 H   52.678557   -6.245409   27.827453
 H   54.339728   -6.512235   28.377296
 H   53.832916   -5.748328   30.598330
 H   53.122728   -4.576438   29.483936
 H   51.359829  -11.990465   31.021259
 H   52.047970  -13.951514   29.664287
 H   53.358252  -13.616467   27.604526
 H   53.986642  -11.384408   26.878888
 H   53.976792   -7.824060   26.652925
 H   54.087598   -9.483100   26.335991
