23 
2ay1_ligand_xtb.xyz
 C  103.320195   46.370075   11.605921
 C  102.832761   46.675330   13.009769
 O  103.028840   45.974941   13.958377
 O  102.150228   47.829598   13.135208
 C  102.142852   46.162585   10.634945
 C  101.256122   45.047945   11.120630
 C  101.592198   43.723000   10.874195
 C  100.120414   45.313080   11.874106
 C  100.820879   42.690594   11.364944
 C   99.342056   44.287520   12.369748
 C   99.682767   42.957439   12.126241
 N   98.870838   41.930418   12.564330
 H  103.918671   45.460269   11.653378
 H  103.954443   47.192139   11.260960
 H  102.057045   48.289166   12.290195
 H  102.547913   45.918969    9.650405
 H  101.560107   47.083280   10.536902
 H  102.473521   43.496149   10.290810
 H   99.837571   46.335260   12.083678
 H  101.096770   41.664736   11.166178
 H   98.463269   44.510574   12.957526
 H   99.300383   41.021183   12.623847
 H   98.256858   42.149549   13.332306
