23 
2ay1_ligand_aiqm1.xyz
 C  103.322399   46.410771   11.624445
 C  102.843631   46.757336   13.018381
 O  102.991995   46.067973   13.985332
 O  102.183474   47.941915   13.128562
 C  102.153589   46.147123   10.655345
 C  101.261594   45.027736   11.127008
 C  101.574227   43.694816   10.850547
 C  100.120342   45.282764   11.891597
 C  100.785101   42.653611   11.324346
 C   99.327191   44.248285   12.371633
 C   99.650871   42.917141   12.095825
 N   98.819140   41.875156   12.525227
 H  103.931749   45.514500   11.716030
 H  103.951097   47.223424   11.246542
 H  102.173976   48.386197   12.276123
 H  102.571300   45.903454    9.676975
 H  101.566078   47.063504   10.528028
 H  102.453917   43.459561   10.259537
 H   99.850833   46.306405   12.130798
 H  101.051423   41.628294   11.093410
 H   98.450363   44.477378   12.966824
 H   99.301242   40.996607   12.637549
 H   98.291168   42.099849   13.354538
