24 
2ay4_ligand_aiqm1.xyz
 C  103.393161   46.140472   11.742360
 C  103.040208   46.567943   13.151561
 O  103.128061   45.872063   14.120918
 O  102.580567   47.842630   13.273650
 C  102.162826   46.092188   10.818094
 C  101.109331   45.136327   11.318275
 C  101.189768   43.771357   11.030131
 C  100.047505   45.578763   12.109343
 C  100.242665   42.878929   11.521107
 C   99.102459   44.681896   12.601297
 C   99.183323   43.317953   12.319295
 C   98.167963   42.346828   12.858057
 H  103.833571   45.148912   11.817249
 H  104.143986   46.826511   11.337028
 H  102.594575   48.273500   12.414347
 H  102.494777   45.789239    9.823871
 H  101.735454   47.095888   10.715810
 H  102.005881   43.397696   10.419288
 H   99.963254   46.632257   12.356991
 H  100.336073   41.824890   11.284957
 H   98.295061   45.052856   13.222567
 H   97.664820   41.815390   12.047634
 H   98.645009   41.597131   13.491657
 H   97.412301   42.863780   13.450313
