24 
2ay4_ligand_dft.xyz
 C   -2.312674    0.961565    0.393833
 C   -2.550493   -0.538691    0.472448
 O   -2.407885   -1.199809    1.462911
 O   -2.967335   -1.126410   -0.678653
 C   -1.298707    1.384702   -0.688222
 C    0.078641    0.806855   -0.461318
 C    1.038465    1.520904    0.258998
 C    0.412664   -0.465457   -0.923784
 C    2.292515    0.978546    0.507823
 C    1.669575   -1.007321   -0.672708
 C    2.630115   -0.296567    0.045820
 C    3.995241   -0.875351    0.321174
 H   -1.960348    1.274837    1.378457
 H   -3.276504    1.455063    0.208600
 H   -3.060154   -0.464218   -1.376057
 H   -1.248018    2.478720   -0.689570
 H   -1.660432    1.103085   -1.686818
 H    0.800743    2.515842    0.629328
 H   -0.318923   -1.048823   -1.477600
 H    3.023878    1.554891    1.069731
 H    1.904197   -2.002364   -1.042052
 H    4.784084   -0.256515   -0.121329
 H    4.189853   -0.931200    1.397975
 H    4.091331   -1.884684   -0.089113
