24 
2ay4_ligand_xtb.xyz
 C  103.374660   46.084168   11.713629
 C  103.013109   46.460015   13.138922
 O  103.085733   45.715761   14.070879
 O  102.595755   47.730342   13.301291
 C  102.137690   46.116139   10.797446
 C  101.090883   45.161061   11.304474
 C  101.161208   43.810918   10.990643
 C  100.066718   45.598668   12.132566
 C  100.230086   42.920749   11.491260
 C   99.136802   44.706971   12.633006
 C   99.205388   43.355230   12.321668
 C   98.211293   42.388955   12.889441
 H  103.790437   45.076613   11.730418
 H  104.137066   46.775026   11.341936
 H  102.584589   48.219923   12.468189
 H  102.447129   45.832428    9.789308
 H  101.723558   47.127450   10.748620
 H  101.951897   43.453117   10.346019
 H   99.991623   46.645409   12.392375
 H  100.301457   41.873184   11.235217
 H   98.347604   45.065740   13.277944
 H   98.128575   41.502587   12.264866
 H   98.528787   42.074404   13.884097
 H   97.230553   42.850541   12.981586
