28 
2ay6_ligand_xtb.xyz
 N  100.263798   42.378253   10.669572
 C  100.775780   43.482900   10.040609
 C  100.603743   44.592097   10.815930
 C   99.489883   44.799505   13.155094
 C   98.875854   44.052859   14.134255
 C   98.696123   42.673526   13.993274
 C   99.123366   42.007408   12.865350
 C   99.744839   42.755633   11.873476
 C   99.940880   44.152159   12.004363
 C  101.057443   45.982494   10.514332
 C  102.542855   46.187436   10.843850
 C  102.857114   45.914318   12.311911
 C  102.268656   46.942408   13.241511
 O  102.427881   46.581759   14.524617
 O  101.733898   47.971504   12.928993
 H  100.256850   41.444922   10.295991
 H  101.227303   43.397564    9.070274
 H   99.617700   45.865715   13.269010
 H   98.520493   44.535550   15.033017
 H   98.209448   42.123029   14.784894
 H   98.980263   40.942332   12.753152
 H  100.906226   46.195881    9.453790
 H  100.466858   46.693860   11.091194
 H  103.143634   45.517030   10.226185
 H  102.817199   47.216546   10.606334
 H  102.481851   44.935348   12.615862
 H  103.937236   45.916384   12.479133
 H  102.048824   47.252582   15.114028
