28 
2ay6_ligand_aiqm1.xyz
 N  100.360744   42.360932   10.746930
 C  100.854660   43.471534   10.092563
 C  100.596504   44.602643   10.816960
 C   99.368017   44.837010   13.115432
 C   98.739833   44.096162   14.102523
 C   98.622692   42.696812   14.001222
 C   99.129505   42.009248   12.912280
 C   99.765375   42.760403   11.917964
 C   99.894883   44.164133   11.997940
 C  101.022026   46.001728   10.492376
 C  102.499396   46.270695   10.811964
 C  102.902399   45.924714   12.241909
 C  102.294814   46.822450   13.283060
 O  102.739288   46.497314   14.517661
 O  101.519282   47.724695   13.094956
 H  100.395928   41.422487   10.398630
 H  101.365301   43.365744    9.147396
 H   99.446627   45.915772   13.203001
 H   98.327258   44.598485   14.967061
 H   98.124616   42.147252   14.789255
 H   99.035617   40.932795   12.835069
 H  100.861064   46.200612    9.429579
 H  100.402594   46.708343   11.043049
 H  103.128148   45.678949   10.141281
 H  102.718510   47.322601   10.613357
 H  102.617369   44.900949   12.493358
 H  103.985610   45.981024   12.369949
 H  102.297942   47.095514   15.133275
