24 
2ay7_ligand_ani-2x.xyz
 C  103.169107   46.037218   12.118338
 C  102.539983   46.360423   10.765284
 C  101.004969   46.238939   10.745460
 C  100.509464   44.929557   11.312787
 C  100.686590   43.735741   10.608254
 C   99.913596   44.876605   12.575030
 C  100.261319   42.522898   11.140981
 C   99.488152   43.664842   13.113457
 C   99.659699   42.484693   12.395917
 C  102.743690   46.976565   13.233011
 O  103.244187   46.685712   14.456797
 O  102.025740   47.932067   13.094801
 H  104.264717   46.078221   12.043229
 H  102.918073   45.009811   12.419595
 H  102.968214   45.685367   10.013388
 H  102.816955   47.378736   10.470912
 H  100.657647   46.353733    9.710497
 H  100.580404   47.065869   11.320232
 H  101.165045   43.761496    9.629744
 H   99.786918   45.799891   13.139538
 H  100.400574   41.604268   10.575445
 H   99.020122   43.642496   14.095078
 H   99.327179   41.537676   12.813870
 H  103.792758   45.890274   14.414656
