24 
2ay7_ligand_xtb.xyz
 C  103.152695   46.055802   12.187476
 C  102.566723   46.271978   10.793158
 C  101.032788   46.211259   10.795975
 C  100.533914   44.897130   11.325205
 C  100.568232   43.757555   10.530286
 C  100.068873   44.785979   12.630011
 C  100.148651   42.536453   11.026570
 C   99.648356   43.565468   13.129527
 C   99.689151   42.436768   12.329108
 C  102.804393   47.183393   13.141124
 O  103.008555   46.897981   14.443687
 O  102.399731   48.258749   12.812519
 H  104.244919   46.012269   12.126070
 H  102.797155   45.106187   12.598234
 H  102.961751   45.505805   10.123117
 H  102.878753   47.250437   10.426063
 H  100.680204   46.354236    9.772554
 H  100.650571   47.030273   11.405638
 H  100.922201   43.831120    9.511548
 H  100.031577   45.666306   13.257079
 H  100.178134   41.659964   10.395567
 H   99.286807   43.495882   14.145353
 H   99.360486   41.483998   12.717275
 H  103.330481   45.998107   14.583155
