27 
2ay9_ligand_xtb.xyz
 C   94.871620   18.672304   -1.764108
 C   94.257942   19.827776   -1.297877
 C   94.045701   20.018975    0.056868
 C   94.442158   19.052376    0.964551
 C   95.057561   17.897413    0.510832
 C   95.270674   17.710537   -0.842708
 C   95.064171   18.434020   -3.235897
 C   94.110084   17.348230   -3.748611
 C   92.646661   17.761549   -3.595884
 C   91.696799   16.613198   -3.944339
 C   91.930460   15.361273   -3.114846
 O   91.994091   15.544008   -1.784916
 O   92.031364   14.265906   -3.585721
 H   93.945820   20.586859   -2.001863
 H   93.569157   20.924554    0.403355
 H   94.275910   19.199624    2.021326
 H   95.373066   17.140833    1.213932
 H   95.755015   16.809245   -1.190109
 H   96.091518   18.113943   -3.422535
 H   94.890660   19.359622   -3.788414
 H   94.287245   16.425413   -3.191999
 H   94.321198   17.144184   -4.799900
 H   92.434215   18.605254   -4.256104
 H   92.476131   18.109709   -2.571801
 H   91.811185   16.332725   -4.992072
 H   90.659609   16.925138   -3.788907
 H   91.931983   16.475732   -1.535053
