27 
2ay9_ligand_aiqm1.xyz
 C   94.851748   18.697682   -1.778501
 C   94.395784   19.921193   -1.282163
 C   94.156641   20.100748    0.079653
 C   94.365623   19.052612    0.969116
 C   94.823598   17.828497    0.491964
 C   95.062038   17.652539   -0.869831
 C   95.052185   18.483332   -3.259238
 C   94.117823   17.406863   -3.822841
 C   92.638254   17.728602   -3.598338
 C   91.713212   16.551715   -3.886469
 C   91.888872   15.323250   -3.011161
 O   92.388254   15.508352   -1.768628
 O   91.570921   14.223025   -3.369643
 H   94.226585   20.742813   -1.969784
 H   93.803854   21.058050    0.439855
 H   94.174740   19.187703    2.024198
 H   94.991429   17.005057    1.173584
 H   95.423051   16.696812   -1.233456
 H   96.086263   18.193003   -3.457195
 H   94.880508   19.427803   -3.783475
 H   94.361025   16.445148   -3.359760
 H   94.303995   17.283088   -4.891617
 H   92.356027   18.567034   -4.236043
 H   92.481189   18.079575   -2.571744
 H   91.825563   16.210370   -4.914799
 H   90.668887   16.857769   -3.771000
 H   92.633929   16.427765   -1.625482
