41 
2ayp_ligand_dft.xyz
 C   11.783872   -3.602360   15.311589
 C   11.107780   -2.378391   15.458139
 C    9.819642   -2.344824   15.966083
 C    9.173663   -3.534243   16.342094
 C    9.854535   -4.741404   16.192538
 C   11.150143   -4.777377   15.680851
 O   13.042877   -3.627368   14.812299
 O   11.837825   -1.297785   15.048207
 C   11.243509   -0.023111   15.147931
 C    7.794738   -3.494287   16.887732
 C    7.424427   -2.493566   17.798927
 C    6.129346   -2.490061   18.282020
 C    5.176747   -3.447880   17.899836
 C    5.548490   -4.437319   16.999594
 C    6.848327   -4.452655   16.499666
 N    5.530665   -1.616534   19.190081
 C    4.214930   -1.942249   19.434651
 C    3.930234   -3.143538   18.605869
 O    3.495204   -1.305411   20.203337
 C    2.766811   -3.840944   18.501784
 C    1.494203   -3.666220   19.118341
 N    1.166584   -2.675111   20.014794
 C   -0.120937   -2.812300   20.394187
 C   -0.664565   -3.911446   19.742288
 C    0.351167   -4.449898   18.938874
 H    9.286323   -1.404003   16.050532
 H    9.379495   -5.666978   16.502851
 H   11.686245   -5.714110   15.571248
 H   13.291108   -2.711234   14.619726
 H   10.337578    0.041758   14.532583
 H   11.983525    0.688079   14.779624
 H   10.993384    0.217496   16.188869
 H    8.150797   -1.759812   18.136239
 H    4.836307   -5.190973   16.674740
 H    7.131496   -5.208234   15.773431
 H    5.975388   -0.833435   19.642008
 H    2.790246   -4.695956   17.827112
 H    1.851271   -1.971760   20.305590
 H   -0.569370   -2.126701   21.098470
 H   -1.678263   -4.271259   19.844529
 H    0.284253   -5.313593   18.290737
