41 
2ayp_ligand_ani-2x.xyz
 C   11.789562   -3.609885   15.311566
 C   11.109953   -2.383563   15.440215
 C    9.825705   -2.341700   15.958322
 C    9.177985   -3.523901   16.347032
 C    9.858844   -4.733234   16.206309
 C   11.154771   -4.778570   15.701732
 O   13.047778   -3.642431   14.812486
 O   11.841658   -1.305408   15.020771
 C   11.232504   -0.033402   15.108459
 C    7.799514   -3.483538   16.901704
 C    7.433913   -2.499257   17.816777
 C    6.143490   -2.494981   18.313800
 C    5.178952   -3.438514   17.916289
 C    5.546895   -4.425429   16.987046
 C    6.840753   -4.440760   16.501553
 N    5.574539   -1.622846   19.225526
 C    4.248783   -1.926874   19.476863
 C    3.941406   -3.125265   18.629145
 O    3.550798   -1.285750   20.252630
 C    2.772855   -3.809614   18.515030
 C    1.487006   -3.641522   19.129875
 N    1.125319   -2.680480   20.036273
 C   -0.177016   -2.847974   20.387774
 C   -0.678559   -3.932020   19.704612
 C    0.369817   -4.436710   18.908296
 H    9.302434   -1.393602   16.047652
 H    9.378822   -5.658174   16.516099
 H   11.681068   -5.722248   15.599039
 H   13.290930   -2.725571   14.607968
 H   10.338416    0.022390   14.475476
 H   11.970714    0.687031   14.754202
 H   10.960174    0.204278   16.144069
 H    8.159813   -1.759646   18.148108
 H    4.845446   -5.183156   16.643863
 H    7.123970   -5.197774   15.774300
 H    6.036189   -0.848195   19.676956
 H    2.778486   -4.658171   17.831053
 H    1.768702   -1.970474   20.366864
 H   -0.647204   -2.182788   21.097187
 H   -1.688950   -4.310837   19.777456
 H    0.333766   -5.286432   18.239623
