20 
2b4l_ligand_ani-2x.xyz
 N   10.245350   10.642073   16.613971
 C   10.323143    9.984613   17.966053
 C   10.707839    8.512299   18.083354
 O   10.764717    8.006029   19.169481
 O   10.977959    7.800604   16.972896
 C   11.565184   10.715369   15.920573
 C    9.169543   10.076168   15.747651
 C    9.847425   12.062713   16.875757
 H    9.345429   10.090197   18.442309
 H   11.045482   10.544169   18.565225
 H   10.887975    8.350121   16.186249
 H   11.983585    9.731299   15.712707
 H   11.429435   11.252497   14.978568
 H   12.257540   11.267807   16.559905
 H    8.215765   10.189990   16.267889
 H    9.146499   10.642830   14.813485
 H    9.325940    9.022103   15.521495
 H    9.775240   12.590771   15.923326
 H    8.879428   12.077565   17.381839
 H   10.602822   12.537383   17.506168
