20 
2b4l_ligand_aiqm1.xyz
 N   -1.009426    0.060409   -0.000030
 C    0.268280    0.822370   -0.000336
 C    1.543155   -0.027483    0.000215
 O    1.528657   -1.222027    0.000825
 O    2.664988    0.675158   -0.000068
 C   -1.131420   -0.792646   -1.229933
 C   -1.131559   -0.791420    1.230706
 C   -2.129570    1.056499   -0.000590
 H    0.270543    1.456583    0.885730
 H    0.270685    1.455634   -0.887080
 H    2.507055    1.624415   -0.000580
 H   -0.356304   -1.548321   -1.210896
 H   -2.113481   -1.255892   -1.222886
 H   -1.021083   -0.151671   -2.101054
 H   -1.021318   -0.149579    2.101202
 H   -2.113621   -1.254672    1.224011
 H   -0.356443   -1.547115    1.212508
 H   -3.070770    0.516913   -0.000393
 H   -2.050527    1.672460    0.891049
 H   -2.050404    1.671597   -0.892813
