24 
2b4m_ligand_ani-2x.xyz
 N   -0.631287   -0.274869   -0.296264
 C   -1.213822    1.122832   -0.317167
 C    0.866107    0.051107   -0.315481
 C    1.033685    1.248334    0.633433
 C   -0.334053    1.961085    0.618813
 C   -1.069653   -0.966582    0.967603
 C   -1.077725   -1.054143   -1.459287
 C    1.762905   -1.131110   -0.023966
 O    1.434689   -2.293343   -0.021575
 O    3.023455   -0.730292    0.210507
 H   -1.145287    1.483055   -1.347697
 H   -2.267094    1.075956   -0.032029
 H    1.073660    0.369611   -1.341063
 H    1.846522    1.885914    0.286801
 H    1.295854    0.904937    1.638442
 H   -0.259749    2.986801    0.251037
 H   -0.765365    2.008075    1.623781
 H   -0.694824   -1.987738    0.964794
 H   -2.166257   -0.962002    1.004838
 H   -0.680786   -0.437142    1.839477
 H   -0.777434   -0.537199   -2.377809
 H   -2.172215   -1.143315   -1.449493
 H   -0.625221   -2.045714   -1.435179
 H    3.544193   -1.534359    0.377785
