24 
2b4m_ligand_xtb.xyz
 N   -0.634500   -0.245056   -0.286752
 C   -1.219442    1.122603   -0.310713
 C    0.830490    0.046578   -0.310472
 C    1.015370    1.223185    0.654579
 C   -0.331186    1.968407    0.607101
 C   -1.043845   -0.940316    0.950045
 C   -1.054374   -1.048765   -1.445508
 C    1.731225   -1.161390   -0.028785
 O    1.352149   -2.298093   -0.023196
 O    2.969768   -0.764231    0.166786
 H   -1.178908    1.495695   -1.335315
 H   -2.260500    1.095819    0.007382
 H    1.076991    0.373864   -1.327673
 H    1.846227    1.847906    0.336038
 H    1.244357    0.872069    1.659968
 H   -0.219334    2.973187    0.206574
 H   -0.762625    2.063069    1.601818
 H   -0.582925   -1.925015    0.991945
 H   -2.125231   -1.060476    0.954471
 H   -0.749234   -0.368626    1.825284
 H   -0.772117   -0.556502   -2.374542
 H   -2.134759   -1.179341   -1.431988
 H   -0.577486   -2.026929   -1.401432
 H    3.580190   -1.507743    0.314686
