25 
2bjm_ligand_xtb.xyz
 C   38.017767   76.680149   31.734906
 C   38.415196   77.981910   31.700393
 C   39.656199   78.364433   32.248483
 C   40.466134   77.431722   32.816772
 C   41.385177   72.784563   34.100866
 C   41.003315   71.478809   34.143888
 C   39.765195   71.078632   33.600412
 C   38.937645   71.994859   33.026268
 C   38.459162   74.319655   32.374556
 O   37.280240   73.870264   31.869197
 C   40.921671   75.112148   33.456104
 C   40.553896   73.771339   33.512329
 C   39.302625   73.362204   32.963906
 C   38.831879   75.673335   32.318497
 C   40.092066   76.064177   32.874594
 H   37.057225   76.423212   31.303694
 H   37.781152   78.732449   31.251841
 H   39.951727   79.402440   32.210382
 H   41.419742   77.713588   33.240062
 H   42.332893   73.097783   34.515628
 H   41.645188   70.735818   34.594945
 H   39.481576   70.037439   33.645100
 H   37.987340   71.704157   32.606161
 H   36.781866   74.604256   31.491340
 H   41.870125   75.420661   33.872077
