25 
2bjm_ligand_ani-2x.xyz
 C   38.003599   76.697692   31.724554
 C   38.409308   78.003779   31.693360
 C   39.657835   78.385414   32.245516
 C   40.471702   77.448915   32.816558
 C   41.396182   72.774882   34.108067
 C   41.009576   71.464358   34.149479
 C   39.765444   71.059870   33.603741
 C   38.926450   71.976066   33.023963
 C   38.464525   74.321037   32.377035
 O   37.290522   73.858875   31.876483
 C   40.918177   75.111908   33.454518
 C   40.555490   73.765630   33.514171
 C   39.297580   73.349322   32.963687
 C   38.824932   75.685422   32.312873
 C   40.090447   76.073379   32.872229
 H   37.038070   76.442120   31.290423
 H   37.771239   78.758836   31.241913
 H   39.961476   79.428578   32.210512
 H   41.430913   77.733271   33.242290
 H   42.350332   73.086826   34.526302
 H   41.657112   70.718268   34.603882
 H   39.479672   70.012645   33.648347
 H   37.973138   71.677516   32.603752
 H   36.780928   74.583798   31.495555
 H   41.872353   75.421595   33.873191
