17 
2bmv_ligand_ani-2x.xyz
 C   19.823611   36.412957   39.184129
 C   19.592376   37.303307   38.133701
 C   18.323022   37.420486   37.581076
 C   17.268250   36.662602   38.084434
 C   17.487305   35.788661   39.146170
 C   18.760932   35.663535   39.691320
 C   21.201760   36.299631   39.756169
 N   21.980621   37.309223   39.695487
 N   21.488695   35.069444   40.341858
 H   20.423602   37.897557   37.765759
 H   18.154969   38.109918   36.757902
 H   16.275537   36.757699   37.652577
 H   16.667344   35.196252   39.545201
 H   18.930738   34.994277   40.531333
 H   22.883103   37.108082   40.129648
 H   22.467079   34.909235   40.540580
 H   21.041253   34.268335   39.916254
