46 
2brc_ligand_xtb.xyz
 C   15.736493   -3.969543   -6.121268
 C   14.456086   -4.370654   -5.774537
 O   14.246584   -5.698640   -5.488293
 O   12.147034   -3.766278   -5.335203
 C   13.422614   -3.430789   -5.722720
 C   13.686439   -2.111049   -6.064389
 C   14.960847   -1.720779   -6.420893
 C   16.007085   -2.641650   -6.433240
 C   17.368048   -2.224853   -6.754119
 C   17.798490   -1.367624   -7.797884
 C   16.969485   -0.691130   -8.829803
 N   19.112768   -1.243292   -7.785195
 C   18.538347   -2.612762   -6.108274
 N   19.551846   -1.997741   -6.775195
 C   18.743891   -3.459663   -4.942314
 C   17.844754   -3.387754   -3.879635
 C   17.967653   -4.169103   -2.748086
 C   16.960861   -4.133040   -1.621113
 C   15.685678   -3.357469   -1.932091
 C   19.070623   -5.032307   -2.665761
 C   12.883649   -6.055991   -5.481251
 O   19.308663   -5.815487   -1.579357
 C   19.970512   -5.126780   -3.716040
 C   12.072239   -5.022035   -4.701378
 C   19.809028   -4.364060   -4.861670
 O   20.702623   -4.545610   -5.875200
 H   16.515010   -4.715311   -6.140638
 H   12.873045   -1.403816   -6.031153
 H   15.153916   -0.687151   -6.659349
 H   17.566304   -0.528522   -9.723281
 H   16.629082    0.279480   -8.469549
 H   16.098215   -1.295898   -9.071014
 H   20.524589   -1.959509   -6.511959
 H   17.031101   -2.687843   -3.965607
 H   17.427963   -3.697610   -0.729097
 H   16.674059   -5.163830   -1.378847
 H   14.983410   -3.463483   -1.107580
 H   15.218679   -3.738926   -2.837271
 H   15.891887   -2.298652   -2.065149
 H   12.822997   -7.041274   -5.016704
 H   12.503304   -6.109289   -6.510938
 H   18.630020   -5.669145   -0.910488
 H   20.797664   -5.813021   -3.645708
 H   11.015413   -5.290652   -4.666226
 H   12.468403   -4.950531   -3.678253
 H   20.366596   -4.141934   -6.686279
