45 
2brg_ligand_ani-2x.xyz
 C    5.718515   -2.421893   20.243947
 C    1.754870   -4.227134   19.943037
 C    0.334280   -4.363241   20.266430
 C   -0.311439   -5.602351   20.310687
 C   -1.664758   -5.684814   20.617796
 C   -2.392836   -4.532316   20.892925
 C   -1.754592   -3.294625   20.872721
 C   -0.402248   -3.209403   20.574602
 C    1.449020   -6.513141   17.767227
 C    1.282278   -7.751686   17.155927
 C    2.174403   -8.786207   17.418773
 C    3.236590   -8.574657   18.293368
 N    4.459432   -2.189159   20.613404
 C    3.632887   -3.107849   20.146627
 O    2.326442   -3.091623   20.445395
 C    3.933492   -4.202923   19.339040
 N    5.745193   -5.050299   17.917774
 C    5.285658   -4.225636   18.892878
 N    6.174656   -3.399277   19.468835
 C    3.409276   -7.334194   18.895679
 C    2.699685   -4.966268   19.263078
 C    2.515167   -6.286873   18.641536
 C    7.784256   -4.431970   16.605871
 C    7.177877   -5.228777   17.755182
 O    7.364085   -3.092584   16.725552
 C    4.925521   -5.420974   16.776665
 H    6.466205   -1.725958   20.619263
 H    0.242085   -6.514081   20.111323
 H   -2.149722   -6.656483   20.640836
 H   -3.451585   -4.597026   21.129162
 H   -2.314217   -2.389265   21.096934
 H    0.096647   -2.243652   20.578246
 H    0.730959   -5.716318   17.582197
 H    0.449189   -7.907358   16.477011
 H    2.040788   -9.755287   16.945317
 H    3.934718   -9.379842   18.507076
 H    4.240738   -7.176024   19.579344
 H    7.477447   -4.869359   15.641044
 H    8.880209   -4.523753   16.667434
 H    7.381327   -6.296741   17.596519
 H    7.643480   -4.915288   18.690360
 H    7.893565   -2.541900   16.139449
 H    4.989076   -6.502442   16.611554
 H    3.884443   -5.159476   16.960092
 H    5.249337   -4.903071   15.863080
