48 
2buc_ligand_aiqm1.xyz
 F   -5.663432   17.923656    4.680791
 C   -6.945311   18.060579    4.257877
 C   -7.564252   16.966127    3.685717
 C   -8.867674   17.093682    3.240191
 C   -9.525052   18.305770    3.368314
 C   -8.883814   19.388860    3.941957
 C   -7.576485   19.288143    4.399015
 C   -6.891269   20.451686    5.056194
 C   -7.323720   20.568890    6.522114
 N   -7.136179   19.278141    7.172337
 C   -6.566054   21.702900    7.226680
 C   -6.937398   23.082312    6.706820
 O   -7.927100   23.261970    6.011317
 N   -6.093286   24.124108    6.979049
 C   -5.035527   24.094744    8.003820
 C   -5.398106   25.042815    9.114279
 C   -5.378856   24.696663   10.461039
 C   -5.760220   25.629437   11.422504
 C   -6.174196   26.901647   11.032457
 C   -5.812207   26.318939    8.718270
 C   -6.205465   27.245387    9.681937
 C   -5.825322   26.579035    7.239036
 C   -6.550566   25.437873    6.514817
 C   -6.424869   25.652758    5.001041
 O   -6.950758   26.619016    4.486340
 N   -5.649452   24.771893    4.310934
 H   -7.025661   16.035469    3.598818
 H   -9.366411   16.247276    2.793128
 H  -10.541563   18.406830    3.019162
 H   -9.396034   20.334227    4.040680
 H   -7.144292   21.375834    4.528933
 H   -5.801844   20.310878    5.020002
 H   -8.388789   20.804084    6.550950
 H   -7.359857   19.331101    8.157563
 H   -6.170297   18.980741    7.100531
 H   -5.488938   21.537603    7.112944
 H   -6.789610   21.671254    8.298249
 H   -4.091278   24.392630    7.538604
 H   -4.911642   23.083243    8.377141
 H   -5.067998   23.701916   10.760569
 H   -5.741390   25.362345   12.470382
 H   -6.477774   27.623593   11.778378
 H   -6.536773   28.231478    9.377968
 H   -6.312275   27.521740    6.995650
 H   -4.796912   26.637650    6.864324
 H   -7.620649   25.515572    6.717219
 H   -5.708239   24.823199    3.308436
 H   -5.433207   23.880305    4.720526
