48 
2buc_ligand_dft.xyz
 F   -6.039677   17.462712    5.231259
 C   -7.198461   17.825746    4.644865
 C   -8.018751   16.829623    4.141534
 C   -9.213076   17.193227    3.526648
 C   -9.561671   18.536964    3.423482
 C   -8.712073   19.513591    3.935118
 C   -7.508813   19.178502    4.557050
 C   -6.609941   20.234854    5.140152
 C   -7.016760   20.632071    6.567875
 N   -6.928171   19.463500    7.433150
 C   -6.177547   21.825701    7.059904
 C   -6.541541   23.141938    6.385608
 O   -7.444547   23.198769    5.547435
 N   -5.853556   24.259750    6.747631
 C   -4.835371   24.308557    7.798431
 C   -5.434160   24.972237    9.010846
 C   -5.383221   24.446305   10.295539
 C   -6.015480   25.114209   11.342934
 C   -6.705776   26.296256   11.093902
 C   -6.123436   26.163347    8.754913
 C   -6.763584   26.817181    9.802085
 C   -6.092840   26.668686    7.337806
 C   -6.368869   25.564794    6.301958
 C   -5.725633   25.921346    4.943791
 O   -4.792659   26.701496    4.847630
 N   -6.293188   25.279085    3.894546
 H   -7.717185   15.792443    4.239443
 H   -9.867808   16.424037    3.128629
 H  -10.491901   18.824721    2.943728
 H   -8.979341   20.565120    3.860249
 H   -6.645889   21.128507    4.512071
 H   -5.571384   19.881051    5.154047
 H   -8.066329   20.943370    6.544230
 H   -7.209426   19.690513    8.382164
 H   -5.975663   19.110590    7.469108
 H   -5.112076   21.605184    6.908049
 H   -6.319126   21.947211    8.142655
 H   -3.984609   24.883441    7.410814
 H   -4.469559   23.307300    8.019732
 H   -4.850384   23.516467   10.481376
 H   -5.975277   24.707503   12.348807
 H   -7.205541   26.814338   11.906890
 H   -7.306125   27.739472    9.610687
 H   -6.815234   27.475960    7.186968
 H   -5.106342   27.092345    7.111689
 H   -7.445466   25.437206    6.162848
 H   -5.837235   25.350627    2.997287
 H   -6.927299   24.508146    4.077440
