17 
2buv_ligand_aiqm1.xyz
 C   12.166458  -13.978383   41.464042
 C   11.047122  -14.016080   42.303914
 C    9.802884  -13.641116   41.827909
 O    8.720290  -13.691113   42.644097
 C    9.676794  -13.209569   40.502182
 O    8.410975  -12.858375   40.123154
 C   10.783376  -13.150206   39.670490
 C   12.033691  -13.540821   40.148583
 C   13.476089  -14.393322   42.054438
 O   13.699619  -14.399462   43.232694
 O   14.435825  -14.785235   41.180794
 H   11.154959  -14.331080   43.333224
 H    7.957720  -13.375016   42.147992
 H    8.418768  -12.548028   39.215780
 H   10.677560  -12.794214   38.651961
 H   12.891061  -13.451212   39.494475
 H   14.067208  -14.840667   40.294872
