17 
2buv_ligand_ani-2x.xyz
 C   12.165498  -13.973005   41.461716
 C   11.050743  -14.014821   42.302336
 C    9.804987  -13.644470   41.827016
 O    8.721409  -13.704130   42.638926
 C    9.677446  -13.198939   40.501232
 O    8.404600  -12.853319   40.133011
 C   10.786842  -13.125249   39.673806
 C   12.034549  -13.515761   40.153120
 C   13.481511  -14.382861   42.050811
 O   13.718803  -14.337721   43.229071
 O   14.424500  -14.820179   41.186621
 H   11.166755  -14.337324   43.332441
 H    7.953670  -13.406287   42.129250
 H    8.402095  -12.556344   39.214880
 H   10.680614  -12.772061   38.649677
 H   12.900372  -13.417685   39.500977
 H   14.046006  -14.943744   40.305709
