41 
2c3i_ligand_xtb.xyz
 C   28.469213   50.380204   -2.720007
 C   28.402505   51.108189   -4.029070
 C   27.154490   50.547216   -3.417765
 C   26.072746   51.451069   -2.844940
 N   26.554327   52.704890   -2.329946
 C   26.890596   52.914314   -1.034262
 C   27.447352   54.178199   -0.663570
 C   27.738245   54.418635    0.643769
 N   26.658999   51.952358   -0.166408
 N   26.946132   52.208315    1.109640
 C   27.474186   53.403513    1.574623
 N   27.645273   53.365456    2.889195
 C   27.222130   52.159301    3.270201
 C   26.773591   51.396102    2.191421
 C   26.259754   50.041391    2.185327
 C   26.194746   49.283604    1.016864
 C   25.838786   49.466567    3.389343
 C   25.378926   48.164572    3.424795
 C   25.330354   47.414688    2.265577
 C   25.733087   47.970803    1.050558
 C   25.651943   47.107409   -0.155386
 C   25.860658   47.775279   -1.492368
 O   25.417182   45.921950   -0.070447
 H   28.646810   50.958802   -1.826696
 H   28.924912   49.401911   -2.699011
 H   28.803376   50.625944   -4.907310
 H   28.552771   52.176980   -4.022874
 H   26.734313   49.667933   -3.890689
 H   25.569873   50.942234   -2.019162
 H   25.335977   51.663654   -3.627666
 H   26.848631   53.398712   -2.996813
 H   27.623754   54.918377   -1.428158
 H   28.157366   55.348960    0.989475
 H   27.270870   51.873108    4.302236
 H   26.522030   49.733585    0.094626
 H   25.868407   50.049647    4.296482
 H   25.057414   47.733817    4.361494
 H   24.978669   46.394137    2.273194
 H   26.862356   48.193171   -1.548920
 H   25.730249   47.041183   -2.283573
 H   25.141003   48.580319   -1.619778
