41 
2c3i_ligand_ani-2x.xyz
 C   28.089791   50.145719   -3.244519
 C   27.690429   50.852548   -4.510589
 C   26.660850   50.551433   -3.460094
 C   26.007640   51.675005   -2.676331
 N   26.920631   52.702295   -2.211659
 C   27.117551   52.934394   -0.871614
 C   27.744688   54.175378   -0.471075
 C   27.939033   54.413479    0.843675
 N   26.737600   51.998151   -0.028570
 N   26.969854   52.262527    1.266980
 C   27.524308   53.422047    1.773933
 N   27.576498   53.393865    3.098487
 C   27.044944   52.199608    3.443812
 C   26.658267   51.456882    2.345940
 C   26.118691   50.098019    2.222670
 C   26.410684   49.275415    1.127670
 C   25.329296   49.575627    3.256328
 C   24.842546   48.275433    3.190697
 C   25.139447   47.470093    2.098756
 C   25.924048   47.972043    1.059641
 C   26.203309   47.080172   -0.108746
 C   26.936974   47.689241   -1.279432
 O   25.842301   45.920378   -0.111205
 H   28.646369   50.722067   -2.511274
 H   28.342867   49.088328   -3.292602
 H   27.677727   50.290303   -5.440007
 H   28.000748   51.888081   -4.629976
 H   25.968970   49.739516   -3.684694
 H   25.509588   51.264320   -1.796354
 H   25.237849   52.142987   -3.308224
 H   27.046156   53.496503   -2.819002
 H   28.043497   54.895528   -1.231566
 H   28.392466   55.322478    1.223091
 H   26.981784   51.897696    4.482189
 H   27.023943   49.675820    0.329854
 H   25.083149   50.195831    4.115005
 H   24.229533   47.886977    3.998811
 H   24.773635   46.449841    2.028363
 H   27.938933   48.009234   -0.971208
 H   27.013526   46.952767   -2.079170
 H   26.403879   48.578470   -1.633987
