29 
2c3j_ligand_dft.xyz
 O   20.948142   18.789288   56.512763
 C   21.154150   17.576016   56.481205
 N   20.133878   16.683860   56.538239
 C   20.227989   15.244205   56.704239
 C   21.129173   14.555251   55.672190
 C   22.543900   17.081795   56.387222
 N   23.486534   18.060121   56.490548
 C   24.734598   17.527439   56.429900
 C   24.609893   16.167127   56.289304
 C   23.216720   15.858645   56.254908
 C   22.590056   14.555864   56.051818
 C   23.267082   13.383985   56.174966
 N   24.624749   13.262203   56.526179
 C   24.879138   11.997743   56.554807
 N   26.110268   11.443086   56.782934
 N   23.790836   11.188909   56.284815
 C   22.699353   12.007705   55.986675
 O   21.604680   11.589436   55.662050
 H   19.235533   17.124989   56.672429
 H   19.211689   14.859451   56.589085
 H   20.558920   14.985697   57.719687
 H   21.006790   15.069496   54.710453
 H   20.787250   13.529527   55.540847
 H   23.211656   19.027516   56.588024
 H   25.614406   18.150658   56.490304
 H   25.407134   15.446758   56.214206
 H   26.782650   12.118429   57.120703
 H   26.124491   10.571303   57.293458
 H   23.797345   10.197496   56.103044
