43 
2c5x_ligand_ani-2x.xyz
 C    2.208936   44.849164   -0.817705
 N    2.110946   44.705097   -2.122227
 C    3.238417   44.004502   -2.419408
 N    4.010988   43.720338   -1.388183
 N    3.327063   44.257034   -0.357975
 C    3.902033   44.283027    0.981060
 C    4.877622   45.423914    1.162771
 C    4.456504   46.642632    1.682160
 C    6.200905   45.278027    0.752258
 C    7.094294   46.337082    0.883609
 C    6.672424   47.546858    1.419400
 C    5.346079   47.709762    1.824078
 C    4.837003   48.988923    2.392022
 N    3.512589   49.038579    2.566267
 C    5.646478   50.069552    2.736703
 C    4.992786   51.198486    3.216992
 N    3.672967   51.282892    3.357206
 C    2.992419   50.176113    3.020989
 N    1.630064   50.265695    3.161377
 C    0.668066   49.282484    2.870668
 C    0.917142   47.925597    3.064259
 C   -0.594869   49.692040    2.417678
 C   -1.576022   48.754194    2.112940
 C   -1.330016   47.395396    2.269060
 C   -0.083526   47.018494    2.746948
 N    0.212956   45.590261    2.917661
 O   -0.644272   44.783109    2.602403
 O    1.308507   45.298183    3.369819
 H    1.502952   45.349739   -0.168896
 H    3.502643   43.696859   -3.424564
 H    4.404815   43.320314    1.116308
 H    3.077218   44.354720    1.693421
 H    3.422745   46.798255    1.981337
 H    6.524075   44.333503    0.319481
 H    8.127665   46.219485    0.567679
 H    7.383892   48.364177    1.505660
 H    6.725742   50.051107    2.648106
 H    5.558986   52.085502    3.498020
 H    1.303989   51.194980    3.379425
 H    1.854442   47.576121    3.468418
 H   -0.798105   50.752688    2.291111
 H   -2.544452   49.087411    1.750517
 H   -2.069492   46.638205    2.039049
