43 
2c5x_ligand_dft.xyz
 C   -3.615693   -1.836732    0.428088
 N   -4.698308   -2.127579    1.125351
 C   -5.575809   -1.180546    0.708267
 N   -5.110996   -0.336509   -0.195517
 N   -3.842998   -0.774279   -0.366713
 C   -2.929067   -0.085281   -1.260379
 C   -2.353395    1.186445   -0.669817
 C   -0.976137    1.351559   -0.589000
 C   -3.192516    2.210513   -0.221662
 C   -2.648092    3.377629    0.299967
 C   -1.268101    3.540659    0.371866
 C   -0.417761    2.527304   -0.073969
 C    1.057160    2.657863    0.015092
 N    1.750719    1.511926    0.041045
 C    1.717203    3.885630    0.066218
 C    3.103468    3.845781    0.164800
 N    3.804928    2.717938    0.203724
 C    3.073953    1.593685    0.131345
 N    3.824221    0.438143    0.161576
 C    3.439127   -0.898838    0.087581
 C    2.106424   -1.317463    0.063597
 C    4.449829   -1.872355    0.040105
 C    4.139725   -3.223683   -0.032307
 C    2.816958   -3.653188   -0.065736
 C    1.836940   -2.673624   -0.021539
 N    0.425904   -3.076236   -0.070430
 O    0.161600   -4.262362    0.009401
 O   -0.413657   -2.189867   -0.193753
 H   -2.666162   -2.355298    0.445413
 H   -6.591060   -1.113525    1.073812
 H   -3.485601    0.133015   -2.176221
 H   -2.128093   -0.786636   -1.504133
 H   -0.316775    0.560062   -0.929698
 H   -4.268979    2.075283   -0.268632
 H   -3.302886    4.164965    0.660249
 H   -0.859594    4.447574    0.807539
 H    1.190251    4.829494    0.009904
 H    3.681260    4.766422    0.210227
 H    4.814893    0.626082    0.218346
 H    1.304840   -0.599467    0.115582
 H    5.491837   -1.563312    0.059224
 H    4.942438   -3.952656   -0.067766
 H    2.550500   -4.700150   -0.127382
