43 
2c5x_ligand_aiqm1.xyz
 C    2.577540   44.057377   -0.800313
 N    2.627662   43.557013   -2.025253
 C    3.858513   42.986932   -2.055792
 N    4.561856   43.101218   -0.938964
 N    3.715762   43.787247   -0.141567
 C    4.115883   44.185747    1.201431
 C    4.976895   45.428566    1.196202
 C    4.517728   46.600870    1.789122
 C    6.232380   45.415617    0.583840
 C    7.011422   46.569006    0.569269
 C    6.553387   47.738357    1.171495
 C    5.299488   47.761400    1.791247
 C    4.778448   48.989549    2.429760
 N    3.447191   49.075997    2.567340
 C    5.617722   50.013579    2.879641
 C    5.003401   51.121447    3.447167
 N    3.679940   51.235280    3.575077
 C    2.970435   50.188815    3.124649
 N    1.611507   50.338740    3.281371
 C    0.555177   49.480166    2.976931
 C    0.718583   48.264745    2.305942
 C   -0.734596   49.868757    3.365292
 C   -1.840225   49.066598    3.095380
 C   -1.689512   47.850217    2.438062
 C   -0.402059   47.489178    2.069620
 N   -0.202577   46.205667    1.393958
 O   -1.183676   45.581242    1.026535
 O    0.953038   45.821359    1.247874
 H    1.759210   44.598686   -0.348990
 H    4.253299   42.473139   -2.915913
 H    4.659967   43.344569    1.629518
 H    3.204774   44.348870    1.778390
 H    3.538051   46.622506    2.251144
 H    6.578314   44.512374    0.098883
 H    7.975941   46.563107    0.078731
 H    7.157490   48.635898    1.128061
 H    6.691573   49.946853    2.805732
 H    5.588141   51.954607    3.816558
 H    1.372220   51.206441    3.729059
 H    1.685505   47.945014    1.971335
 H   -0.868680   50.812664    3.881680
 H   -2.822441   49.396434    3.404313
 H   -2.519075   47.198654    2.214081
