43 
2c5y_ligand_aiqm1.xyz
 C   27.964141   24.693744   25.413063
 N   28.955939   23.816834   25.439876
 C   29.828936   24.338419   24.541700
 N   29.441591   25.467865   23.967782
 N   28.235431   25.674774   24.537581
 C   27.457888   26.866252   24.223950
 C   27.931216   28.077174   24.995701
 C   27.095572   28.683112   25.929102
 C   29.214871   28.588419   24.790173
 C   29.648350   29.693540   25.516959
 C   28.806668   30.303739   26.443825
 C   27.517718   29.802676   26.654628
 C   26.602999   30.419883   27.639445
 N   25.620431   29.641400   28.116084
 C   26.737188   31.747829   28.056544
 C   25.823763   32.202938   28.997479
 N   24.851505   31.438467   29.498657
 C   24.804553   30.186135   29.018221
 N   23.784663   29.431614   29.551410
 C   23.386467   28.119694   29.294603
 C   24.090515   27.250635   28.456020
 C   22.219595   27.657499   29.919193
 C   21.758945   26.359586   29.714347
 C   22.444512   25.488804   28.874060
 C   23.592800   25.974146   28.266166
 N   24.329251   25.092154   27.358792
 O   24.009913   23.916494   27.301178
 O   25.225853   25.595961   26.690389
 H   27.047330   24.660321   25.982864
 H   30.773372   23.881923   24.298187
 H   26.414804   26.644863   24.453249
 H   27.556940   27.032539   23.151846
 H   26.104924   28.281609   26.105436
 H   29.874739   28.101209   24.084547
 H   30.649308   30.077630   25.370265
 H   29.166781   31.145128   27.022429
 H   27.501690   32.397223   27.660454
 H   25.866073   33.219148   29.369034
 H   23.225360   29.952662   30.204312
 H   25.000101   27.559419   27.980175
 H   21.671649   28.325062   30.574716
 H   20.857829   26.031951   30.213971
 H   22.118823   24.478124   28.686085
