43 
2c5y_ligand_xtb.xyz
 C   28.187157   24.683313   25.503342
 N   29.229483   23.888196   25.433463
 C   29.952228   24.414001   24.426361
 N   29.411137   25.478275   23.881267
 N   28.276926   25.645351   24.571452
 C   27.392304   26.753731   24.332830
 C   27.877101   27.987164   25.057184
 C   27.055376   28.637569   25.959423
 C   29.167675   28.458171   24.843514
 C   29.623452   29.565394   25.537343
 C   28.801457   30.214282   26.440576
 C   27.503009   29.757700   26.658863
 C   26.612363   30.403504   27.628925
 N   25.630133   29.648132   28.121902
 C   26.754838   31.732399   28.036455
 C   25.852729   32.195757   28.980031
 N   24.892386   31.441460   29.481978
 C   24.819416   30.189437   29.017307
 N   23.796560   29.463572   29.561724
 C   23.375712   28.177868   29.304122
 C   24.023408   27.339714   28.399864
 C   22.245881   27.694976   29.976576
 C   21.772690   26.416208   29.748460
 C   22.403356   25.583765   28.841244
 C   23.524876   26.065483   28.175933
 N   24.184595   25.224845   27.214711
 O   23.818122   24.074723   27.115363
 O   25.071847   25.716882   26.542176
 H   27.365435   24.596018   26.182676
 H   30.882970   24.001872   24.094904
 H   26.397751   26.475150   24.686301
 H   27.370748   26.936160   23.253812
 H   26.051600   28.280375   26.123652
 H   29.811610   27.942148   24.146513
 H   30.630100   29.921934   25.377530
 H   29.182578   31.058572   26.994681
 H   27.515056   32.376584   27.630589
 H   25.893325   33.210638   29.354434
 H   23.259536   29.994783   30.234904
 H   24.907475   27.683055   27.889830
 H   21.739008   28.335327   30.683765
 H   20.900800   26.067400   30.279430
 H   22.046790   24.586712   28.639090
