51 
2cbr_ligand_aiqm1.xyz
 C   28.950510   81.963180    5.625719
 C   29.390112   82.388713    4.218521
 C   28.489982   83.460118    3.629579
 C   27.050168   82.967758    3.430681
 C   26.563521   82.224295    4.673369
 C   25.195988   81.970293    4.824882
 C   24.659954   81.289008    5.912495
 C   25.527536   80.841623    6.903564
 C   26.894498   81.074230    6.769838
 C   27.438049   81.744926    5.671507
 N   25.100455   80.126973    8.046754
 C   23.830436   79.972253    8.518479
 C   23.734645   79.177261    9.789390
 C   24.645139   78.176240   10.132971
 C   24.487725   77.464447   11.317820
 C   23.427400   77.760239   12.176438
 C   22.520701   78.767616   11.834223
 C   22.665496   79.458463   10.642323
 C   23.217411   77.047545   13.478883
 C   29.326272   83.049481    6.650026
 C   29.721094   80.679965    5.974651
 C   26.181812   84.199528    3.132603
 C   26.977099   82.019287    2.219231
 O   22.837798   80.440765    7.993002
 O   23.761220   75.811495   13.586769
 O   22.598632   77.514547   14.393709
 H   29.385687   81.503953    3.572971
 H   30.427794   82.733252    4.264887
 H   28.878409   83.808518    2.667827
 H   28.469683   84.333108    4.290868
 H   24.509646   82.314987    4.061176
 H   23.596364   81.123874    5.992284
 H   27.552163   80.717462    7.557606
 H   25.834381   79.804566    8.651513
 H   25.462335   77.915250    9.469600
 H   25.221604   76.708022   11.575623
 H   21.711484   78.986494   12.518291
 H   21.959407   80.221994   10.346650
 H   28.833052   83.998254    6.430255
 H   29.031945   82.747603    7.659402
 H   30.407871   83.214102    6.646208
 H   29.585243   80.374240    7.013181
 H   29.413895   79.855520    5.326638
 H   30.789952   80.854451    5.823597
 H   26.616607   84.748385    2.292263
 H   25.160302   83.935807    2.857094
 H   26.146583   84.867652    3.996429
 H   25.951406   81.674907    2.061163
 H   27.304847   82.538369    1.313388
 H   27.607127   81.137401    2.355534
 H   24.113063   75.536678   12.735222
