51 
2cbr_ligand_ani-2x.xyz
 C   28.966363   81.728152    5.489063
 C   29.370561   82.217726    4.084895
 C   28.548219   83.413760    3.617121
 C   27.043197   83.096529    3.507931
 C   26.566744   82.294178    4.717227
 C   25.191540   82.114239    4.905453
 C   24.660159   81.443671    5.995290
 C   25.531761   80.918525    6.949729
 C   26.905761   81.055921    6.757452
 C   27.442665   81.688928    5.635676
 N   25.098747   80.247695    8.109712
 C   23.815170   79.952979    8.497584
 C   23.701839   79.199956    9.790603
 C   24.670775   79.247382   10.798746
 C   24.501939   78.512459   11.962596
 C   23.361255   77.722377   12.134800
 C   22.371776   77.717091   11.150833
 C   22.541398   78.449236    9.987515
 C   23.114274   76.913607   13.372399
 C   29.551696   82.657307    6.569055
 C   29.568919   80.325922    5.677415
 C   26.298791   84.439695    3.413326
 C   26.758777   82.293705    2.223635
 O   22.821810   80.243785    7.850107
 O   24.202838   76.538191   14.081640
 O   22.014776   76.596384   13.744227
 H   29.251505   81.388111    3.373227
 H   30.439990   82.463985    4.094419
 H   28.902753   83.769060    2.641277
 H   28.683018   84.249957    4.318134
 H   24.488168   82.510667    4.177960
 H   23.592790   81.327309    6.119139
 H   27.574955   80.658682    7.515813
 H   25.839847   79.835407    8.656401
 H   25.552747   79.878062   10.700993
 H   25.256984   78.589429   12.744511
 H   21.472299   77.134130   11.323783
 H   21.780525   78.460485    9.213074
 H   29.205721   83.690466    6.450804
 H   29.257026   82.326947    7.570856
 H   30.646943   82.657024    6.521325
 H   29.393795   79.931467    6.682144
 H   29.144696   79.616097    4.957552
 H   30.653767   80.362876    5.522248
 H   26.690536   85.024204    2.572221
 H   25.225429   84.307031    3.250126
 H   26.430564   85.027870    4.328977
 H   25.694280   82.046781    2.144775
 H   27.037275   82.877384    1.338319
 H   27.316478   81.350510    2.198131
 H   25.010659   76.731759   13.586859
