51 
2cbr_ligand_xtb.xyz
 C   28.931951   81.998799    5.660375
 C   29.385745   82.396545    4.251166
 C   28.481982   83.449711    3.634361
 C   27.049015   82.939994    3.440907
 C   26.572266   82.198385    4.675595
 C   25.215186   81.908501    4.792983
 C   24.683101   81.247433    5.879563
 C   25.531535   80.856213    6.906662
 C   26.889781   81.120543    6.793602
 C   27.431682   81.768568    5.690333
 N   25.090739   80.185940    8.055750
 C   23.817873   79.885836    8.432315
 C   23.743552   79.150231    9.736553
 C   24.660960   78.166347   10.093406
 C   24.520452   77.482171   11.286735
 C   23.470352   77.787134   12.149866
 C   22.558889   78.780171   11.796353
 C   22.683530   79.440382   10.591460
 C   23.285991   77.105306   13.465502
 C   29.279524   83.104718    6.666979
 C   29.692701   80.720002    6.043426
 C   26.159300   84.160616    3.160972
 C   26.978623   81.987810    2.238378
 O   22.816444   80.174428    7.811886
 O   23.754519   75.846566   13.555971
 O   22.747201   77.628657   14.400163
 H   29.392360   81.508006    3.617205
 H   30.410191   82.772944    4.298255
 H   28.885513   83.758682    2.667471
 H   28.461952   84.331866    4.276694
 H   24.539684   82.208291    4.007601
 H   23.627980   81.043670    5.938854
 H   27.539867   80.805959    7.597585
 H   25.827266   79.950767    8.707062
 H   25.472548   77.905371    9.428617
 H   25.258739   76.735157   11.549425
 H   21.755110   79.009188   12.478903
 H   21.969314   80.192316   10.292997
 H   28.764226   84.029734    6.422310
 H   28.982216   82.814018    7.671810
 H   30.351361   83.292195    6.665504
 H   29.600542   80.492223    7.101697
 H   29.322253   79.870821    5.472909
 H   30.751074   80.846857    5.824531
 H   26.618038   84.776956    2.390184
 H   25.172513   83.871749    2.811666
 H   26.043385   84.761883    4.060255
 H   25.960621   81.636041    2.090665
 H   27.301828   82.499071    1.333850
 H   27.612970   81.118434    2.391624
 H   24.110056   75.521895   12.718164
