28 
2cc7_ligand_ani-2x.xyz
 N    0.226253   22.191756   -2.689495
 C   -0.503056   21.990881   -3.848255
 C    0.751223   21.195363   -1.887334
 O   -0.944714   22.896781   -4.518173
 N   -0.683054   20.652903   -4.175210
 C   -0.237293   19.513117   -3.502125
 O   -0.484994   18.409218   -3.926187
 C    0.541938   19.822060   -2.259386
 N    1.016554   18.845287   -1.536804
 C    1.714436   19.175179   -0.421889
 C    2.250682   18.151101    0.397002
 C    1.914338   20.528890   -0.065108
 C    2.963368   18.446928    1.534426
 C    3.517512   17.321895    2.378511
 C    3.166961   19.817047    1.897273
 C    3.943892   20.179297    3.138125
 C    2.650024   20.815137    1.108343
 N    1.417770   21.548401   -0.821230
 H    0.381434   23.151161   -2.413414
 H   -1.213992   20.485157   -5.019741
 H    2.072688   17.125216    0.084799
 H    2.713659   16.664550    2.729601
 H    4.207811   16.700123    1.796681
 H    4.056446   17.682258    3.255450
 H    3.473804   19.771563    4.039315
 H    4.969360   19.797353    3.095371
 H    3.995632   21.266078    3.249906
 H    2.789419   21.863901    1.359949
