28 
2cc7_ligand_xtb.xyz
 N    0.263839   22.184662   -2.698538
 C   -0.484523   21.976733   -3.831232
 C    0.760290   21.187155   -1.902584
 O   -0.907458   22.876132   -4.511013
 N   -0.712222   20.647036   -4.126574
 C   -0.292184   19.512362   -3.442720
 O   -0.579362   18.412666   -3.838494
 C    0.504773   19.825594   -2.239494
 N    0.965990   18.847457   -1.498218
 C    1.685462   19.168417   -0.413410
 C    2.202232   18.152419    0.414007
 C    1.939355   20.532864   -0.078977
 C    2.939753   18.455336    1.527093
 C    3.481250   17.364051    2.395203
 C    3.192399   19.817320    1.859802
 C    3.997819   20.146497    3.075448
 C    2.698373   20.821792    1.067504
 N    1.461006   21.530853   -0.847194
 H    0.461715   23.141613   -2.433962
 H   -1.264186   20.480330   -4.961670
 H    1.994389   17.130713    0.136500
 H    3.200338   16.390352    2.004139
 H    4.567917   17.418130    2.446439
 H    3.097185   17.455253    3.410386
 H    3.522539   19.744165    3.969121
 H    4.992209   19.707527    3.005290
 H    4.099692   21.222011    3.189857
 H    2.879511   21.859162    1.303693
