28 
2cc7_ligand_aiqm1.xyz
 N    0.228846   22.185334   -2.685170
 C   -0.494363   21.980970   -3.835229
 C    0.751422   21.188037   -1.886788
 O   -0.936410   22.882731   -4.506527
 N   -0.679332   20.649979   -4.170014
 C   -0.233385   19.515632   -3.495579
 O   -0.476557   18.409708   -3.912334
 C    0.541595   19.823403   -2.259536
 N    1.014393   18.837325   -1.540064
 C    1.711522   19.173661   -0.426335
 C    2.250337   18.154878    0.396694
 C    1.913956   20.531766   -0.065519
 C    2.963920   18.448136    1.535383
 C    3.512731   17.319067    2.370721
 C    3.167432   19.823464    1.898258
 C    3.942757   20.188677    3.136571
 C    2.648530   20.822397    1.106254
 N    1.417242   21.549098   -0.821765
 H    0.381260   23.143300   -2.413482
 H   -1.209674   20.493751   -5.013559
 H    2.077915   17.128933    0.093272
 H    2.704914   16.668100    2.709578
 H    4.192648   16.702880    1.779733
 H    4.051817   17.672355    3.246550
 H    3.475162   19.776851    4.031735
 H    4.961996   19.802947    3.093203
 H    3.995801   21.270333    3.250805
 H    2.791624   21.864886    1.363543
