38 
2cgu_ligand_xtb.xyz
 O   -2.561242   -1.669415   22.598917
 C   -3.158695   -2.757777   22.133993
 O   -4.287760   -3.052437   22.392144
 C   -2.278868   -3.628167   21.223117
 O   -1.010911   -3.023236   21.110842
 C   -0.043988   -3.618191   20.340640
 C    1.176654   -2.937929   20.293893
 C   -0.220020   -4.806744   19.642348
 C    0.815049   -5.341168   18.884164
 C    2.024216   -4.679176   18.830177
 C    2.195734   -3.473834   19.541224
 C    3.557938   -2.981700   19.316393
 N    3.971581   -1.901718   19.849867
 O    5.270911   -1.511060   19.584101
 C    4.199251   -3.959868   18.428186
 C    5.471174   -3.987821   17.903059
 C    3.268724   -4.981943   18.138262
 C    3.630287   -6.028653   17.317459
 C    4.913847   -6.063528   16.783271
 C    5.824834   -5.056045   17.071374
 O    7.108188   -5.011022   16.589091
 C    7.567194   -6.036693   15.739124
 C    9.022485   -5.735214   15.349055
 O    9.513220   -4.621095   15.873898
 O    9.647109   -6.457014   14.629770
 H   -1.646168   -1.620211   22.267815
 H   -2.776909   -3.711738   20.248557
 H   -2.213574   -4.628977   21.669069
 H    1.305249   -2.016972   20.838132
 H   -1.161381   -5.331606   19.678322
 H    0.661670   -6.264967   18.347964
 H    5.378741   -0.683751   20.076335
 H    6.191014   -3.214863   18.115889
 H    2.933959   -6.819380   17.083872
 H    5.187456   -6.886624   16.142333
 H    6.973614   -6.097054   14.817754
 H    7.543707   -7.015971   16.234496
 H    8.840509   -4.184641   16.427595
