38 
2cgu_ligand_ani-2x.xyz
 O   -2.712529   -1.743977   22.603612
 C   -3.228009   -2.862760   22.085511
 O   -4.352992   -3.227621   22.296357
 C   -2.287200   -3.666609   21.192673
 O   -1.036631   -3.010127   21.120089
 C   -0.042800   -3.570340   20.363784
 C    1.167836   -2.876598   20.331132
 C   -0.206744   -4.772562   19.652595
 C    0.836472   -5.294986   18.901077
 C    2.053010   -4.612938   18.858536
 C    2.200278   -3.412190   19.575424
 C    3.571249   -2.914956   19.352226
 N    3.994497   -1.833814   19.882206
 O    5.305155   -1.562732   19.536937
 C    4.241837   -3.891100   18.455717
 C    5.527930   -3.934300   17.917289
 C    3.302650   -4.905565   18.173492
 C    3.654865   -5.969061   17.346950
 C    4.931592   -6.020584   16.806855
 C    5.859225   -5.005156   17.094313
 O    7.134133   -4.997876   16.593003
 C    7.537800   -6.057420   15.748021
 C    8.984722   -5.836307   15.316149
 O    9.566234   -4.733608   15.797584
 O    9.545917   -6.612881   14.591480
 H   -1.794583   -1.662798   22.291532
 H   -2.748696   -3.753841   20.202631
 H   -2.185515   -4.670066   21.621048
 H    1.286710   -1.948532   20.883186
 H   -1.149456   -5.307322   19.681607
 H    0.691148   -6.226459   18.357344
 H    5.479292   -0.734732   20.002382
 H    6.251501   -3.157291   18.131769
 H    2.943541   -6.760493   17.118270
 H    5.197553   -6.852121   16.164313
 H    6.917174   -6.106004   14.846149
 H    7.480501   -7.022345   16.264298
 H    8.917131   -4.270130   16.354957
