71 
2cmf_ligand_ani-2x.xyz
 C    3.487121   63.099736   69.901009
 C    2.683439   64.274909   69.915527
 C    3.261489   65.634464   69.562219
 C    4.568719   65.538414   68.782727
 C    5.522776   64.572370   69.478782
 C    4.935537   63.162192   69.442952
 N    3.047788   61.911310   70.250216
 C    1.745770   61.801938   70.645029
 C    0.850204   62.897252   70.693797
 C    1.372388   64.178858   70.324152
 N    0.564525   65.343103   70.354545
 C   -0.501393   62.663496   71.086156
 C   -0.921091   61.405296   71.433534
 C   -0.016457   60.318031   71.401157
 C    1.281349   60.512195   71.015686
 C    1.819840   69.492531   67.897800
 C    0.824249   68.327271   67.879682
 C    0.124949   68.120836   69.224831
 C   -0.889883   66.972624   69.227968
 C   -0.251463   65.591730   69.157021
 C    4.553997   66.976353   65.124745
 C    3.444022   67.829861   65.355835
 C    2.148455   67.646497   64.571989
 C    2.028504   66.282718   63.893217
 C    3.318795   65.948362   63.153387
 C    4.456973   65.809667   64.159322
 N    5.720088   67.100793   65.731838
 C    5.875776   68.116729   66.626206
 C    4.832823   69.015610   66.950615
 C    3.577809   68.843357   66.297036
 N    2.526996   69.728236   66.633347
 C    5.082991   70.061282   67.880197
 C    6.306241   70.175936   68.495250
 C    7.333632   69.262301   68.193801
 C    7.125323   68.262845   67.274435
 H    3.435243   66.187443   70.497225
 H    2.524600   66.222116   69.005723
 H    5.007386   66.536642   68.658553
 H    4.357499   65.162021   67.771988
 H    5.657503   64.886673   70.522334
 H    6.511506   64.582767   69.007004
 H    4.968990   62.774209   68.415719
 H    5.511175   62.464565   70.056473
 H   -0.024511   65.331703   71.180188
 H   -1.212677   63.487617   71.105042
 H   -1.950066   61.237316   71.739802
 H   -0.359618   59.325237   71.681566
 H    2.000136   59.700073   70.973827
 H    2.570396   69.320042   68.678468
 H    1.293776   70.420399   68.158620
 H    1.354181   67.415632   67.569564
 H    0.059460   68.517857   67.110536
 H   -0.388305   69.052378   69.499549
 H    0.873713   67.931874   70.006127
 H   -1.590906   67.091012   68.390225
 H   -1.490117   67.019816   70.146690
 H   -1.027682   64.819536   69.021784
 H    0.405941   65.519126   68.283039
 H    2.084799   68.435029   63.806849
 H    1.288394   67.799654   65.233851
 H    1.167536   66.275557   63.214421
 H    1.843567   65.514845   64.656425
 H    3.550577   66.754824   62.444769
 H    3.216184   65.025889   62.570370
 H    4.310775   64.901929   64.763869
 H    5.426793   65.700798   63.667509
 H    1.867896   69.831570   65.870307
 H    4.290487   70.777971   68.077969
 H    6.482274   70.971206   69.214301
 H    8.300419   69.351921   68.681965
 H    7.898095   67.545749   67.018240
