51 
2d0k_ligand_aiqm1.xyz
 N   -2.494368   -0.230092    2.273547
 C   -2.371022   -1.270378    3.033681
 N   -2.236018   -1.105840    4.388376
 N   -2.431217   -2.566022    2.600395
 C   -2.637602   -2.939234    1.270616
 O   -2.696290   -4.106744    0.958392
 C   -2.754164   -1.768014    0.381581
 N   -2.892467   -1.994632   -0.930623
 C   -2.971490   -0.926422   -1.718783
 C   -2.852697    0.364559   -1.175359
 N   -2.672387    0.603056    0.120522
 C   -2.652618   -0.473202    0.926724
 C   -3.030194   -1.180162   -3.211285
 N   -1.832704   -1.885412   -3.693921
 C    1.510829    0.173147   -2.197098
 C    1.308015   -1.164063   -1.848733
 C    0.248386   -1.877130   -2.394504
 C   -0.636718   -1.253339   -3.280317
 C   -0.375712    0.056650   -3.701287
 C    0.696750    0.756006   -3.168908
 C    2.481584    1.068675   -1.503267
 O    2.912336    2.094921   -2.011215
 N    2.797088    0.718599   -0.226436
 C    3.550248    1.618022    0.606933
 C    2.719814    2.798902    1.147403
 C    1.638569    2.437399    2.175379
 C    0.508459    1.606868    1.613549
 O   -0.436008    2.362538    1.047718
 O    0.463074    0.397003    1.661222
 C    4.185178    0.814847    1.721380
 O    4.972391    1.584991    2.498231
 O    4.024022   -0.360935    1.909862
 H   -1.657115   -1.779397    4.860238
 H   -2.028722   -0.151603    4.637704
 H   -2.366783   -3.328222    3.258266
 H   -2.875821    1.228525   -1.831824
 H   -3.125913   -0.233983   -3.744702
 H   -3.892469   -1.802007   -3.455425
 H   -1.865474   -2.839111   -3.363594
 H    1.960842   -1.654788   -1.136573
 H    0.077527   -2.906420   -2.100534
 H   -1.036041    0.519467   -4.424292
 H    0.903281    1.775570   -3.464481
 H    2.368959   -0.074416    0.221091
 H    4.355733    2.046966    0.006797
 H    3.413958    3.498455    1.614180
 H    2.267620    3.301467    0.293729
 H    2.079447    1.882209    3.006296
 H    1.208959    3.359850    2.562360
 H   -1.185394    1.802882    0.756880
 H    5.354239    0.999894    3.165410
