45 
2d2v_ligand_xtb.xyz
 C   -0.992148   -1.081778    0.392653
 C   -1.954875   -1.658623   -0.660518
 C   -2.607447   -0.498823   -1.409105
 C   -3.304079    0.429932   -0.406491
 C   -2.281411    0.884501    0.646030
 C   -2.922466    1.701986    1.770610
 O    0.032939   -0.420226   -0.281562
 O   -1.222349   -2.488894   -1.525251
 O   -3.514746   -1.031341   -2.344126
 O   -3.844973    1.500148   -1.138486
 O   -1.672013   -0.234542    1.277911
 O   -3.480535    2.880342    1.226827
 C    4.124735    0.149530   -0.173967
 C    3.643318   -1.168947   -0.808705
 C    2.149885   -1.058689   -1.130440
 C    1.373146   -0.639914    0.125532
 C    1.983889    0.638719    0.719488
 C    1.369635    0.992064    2.076886
 O    4.067625    1.183232   -1.112387
 O    4.394276   -1.378787   -1.978388
 O    1.720195   -2.300038   -1.627610
 O    3.378332    0.467227    0.955187
 O    1.736849    2.275616    2.497998
 H   -0.598695   -1.893423    1.019225
 H   -2.737573   -2.237749   -0.147167
 H   -1.823082    0.075062   -1.926755
 H   -4.109218   -0.134007    0.097224
 H   -1.518121    1.495718    0.143365
 H   -3.695854    1.092133    2.256645
 H   -2.145163    1.933036    2.507090
 H   -1.770604   -2.622430   -2.310406
 H   -4.064514   -0.297744   -2.646394
 H   -3.959702    2.247942   -0.533939
 H   -3.737716    3.467102    1.945329
 H    5.155151    0.023744    0.196889
 H    3.792469   -1.992448   -0.095163
 H    2.003954   -0.273246   -1.890531
 H    1.424249   -1.449115    0.866769
 H    1.827534    1.465354    0.013396
 H    0.281008    0.977900    2.009880
 H    1.694991    0.234828    2.805279
 H    4.394047    0.816498   -1.945540
 H    3.965122   -2.098466   -2.458994
 H    0.747322   -2.312491   -1.637680
 H    2.696915    2.338907    2.420191
