68 
2dbl_ligand_ani-2x.xyz
 C    1.485481    0.923788    0.190393
 C    2.974431    0.597380    0.019132
 C    3.342271   -0.700151    0.734229
 O    4.695646   -1.095262    0.417863
 C    2.446008   -1.848405    0.301413
 C    0.966669   -1.503554    0.504202
 C    0.039543   -2.683336    0.201888
 C   -1.411675   -2.352547    0.553577
 C   -1.902346   -1.065493   -0.121858
 C   -0.929572    0.110578    0.160247
 C    0.537448   -0.215043   -0.257283
 C   -1.460705    1.445018   -0.406729
 C   -2.913757    1.755321    0.001985
 C   -3.856220    0.597329   -0.328298
 C   -3.298617   -0.668004    0.358600
 C   -4.447517   -1.679793    0.266450
 C   -5.733396   -0.815839    0.371818
 C   -5.260909    0.657818    0.335707
 C   -3.996224    0.424094   -1.847840
 C    0.650720   -0.394837   -1.781423
 C   -6.274548    1.591362   -0.308642
 O   -7.236350    1.159374   -0.909921
 C   -6.045091    3.083706   -0.192275
 C    5.672373   -0.385021    1.000134
 O    5.480344    0.508334    1.794532
 C    7.039601   -0.863535    0.564563
 C    8.132638    0.081224    1.041834
 C    8.095727    1.392882    0.295170
 O    7.483825    1.598676   -0.726773
 O    8.859764    2.331865    0.882064
 H    1.258122    1.838812   -0.368331
 H    1.290842    1.144102    1.251549
 H    3.587924    1.413853    0.415458
 H    3.229674    0.498697   -1.043483
 H    3.268633   -0.555300    1.817503
 H    2.650074   -2.090030   -0.748892
 H    2.711341   -2.741562    0.880610
 H    0.843830   -1.266359    1.577168
 H    0.122113   -2.960571   -0.857778
 H    0.368964   -3.562391    0.771340
 H   -2.060815   -3.196057    0.286469
 H   -1.490499   -2.232462    1.645044
 H   -1.944055   -1.253125   -1.205616
 H   -0.906261    0.224740    1.259105
 H   -0.827647    2.273114   -0.070973
 H   -1.394571    1.438101   -1.502906
 H   -2.950682    1.947608    1.084504
 H   -3.241213    2.677792   -0.491937
 H   -3.192894   -0.408893    1.427479
 H   -4.391115   -2.440637    1.053190
 H   -4.419902   -2.211887   -0.693242
 H   -6.415123   -1.002506   -0.460977
 H   -6.291184   -1.014502    1.292052
 H   -5.103876    1.016619    1.364685
 H   -3.033618    0.226459   -2.326121
 H   -4.402783    1.338346   -2.293768
 H   -4.672849   -0.393662   -2.117767
 H   -0.023705   -1.167888   -2.161535
 H    0.409123    0.538670   -2.302613
 H    1.664463   -0.674189   -2.083220
 H   -6.967527    3.614972   -0.434847
 H   -5.267226    3.397229   -0.897273
 H   -5.709107    3.358122    0.813778
 H    7.052391   -0.949526   -0.527051
 H    7.184836   -1.869376    0.976907
 H    9.125534   -0.357099    0.883001
 H    8.030547    0.285793    2.111841
 H    8.772584    3.127169    0.330986
