55 
2drc_ligand_aiqm1.xyz
 N   -4.560433   -2.080064    0.896375
 C   -3.959735   -3.109058    0.323978
 N   -4.397177   -4.349047    0.669295
 N   -2.960943   -3.094801   -0.603070
 C   -2.554887   -1.908248   -0.987660
 N   -1.477512   -1.819963   -1.815922
 C   -3.167106   -0.703536   -0.502873
 N   -2.768993    0.495223   -0.982667
 C   -3.386764    1.547601   -0.486416
 C   -4.390981    1.396465    0.510536
 N   -4.782255    0.234108    0.990781
 C   -4.172418   -0.858730    0.465718
 C   -2.995060    2.913778   -0.977616
 N   -2.099873    3.634090   -0.054608
 C   -1.878209    4.983960   -0.559568
 C    1.377156    1.401499    0.884584
 C    1.437518    2.389821   -0.097438
 C    0.310528    3.145189   -0.413993
 C   -0.903057    2.909609    0.245567
 C   -0.948013    1.937702    1.252696
 C    0.178630    1.197711    1.570915
 C    2.533528    0.528585    1.241693
 O    2.620916   -0.033300    2.323945
 N    3.463216    0.352753    0.263581
 C    4.624285   -0.475612    0.459373
 C    5.837815    0.241001   -0.094564
 O    5.805752    1.166217   -0.862223
 O    6.981486   -0.312183    0.351269
 C    4.506642   -1.860285   -0.204835
 C    3.236432   -2.588943    0.223981
 C    2.033470   -2.202083   -0.598073
 O    2.067738   -1.741307   -1.714678
 O    0.887714   -2.460290    0.048852
 H   -3.783540   -5.114128    0.454367
 H   -4.949155   -4.406216    1.506270
 H   -1.280710   -2.624404   -2.389344
 H   -1.299943   -0.908336   -2.213805
 H   -4.865437    2.281686    0.923975
 H   -2.526167    2.809382   -1.966328
 H   -3.891265    3.527222   -1.089396
 H   -1.496342    5.004830   -1.589891
 H   -2.828413    5.520718   -0.541530
 H   -1.175551    5.506973    0.085012
 H    2.369125    2.598058   -0.612087
 H    0.391434    3.916058   -1.169265
 H   -1.880160    1.775097    1.780017
 H    0.155751    0.452624    2.354437
 H    3.344103    0.777220   -0.638026
 H    4.752789   -0.609876    1.533516
 H    7.705180    0.171737   -0.066984
 H    4.523202   -1.755257   -1.290955
 H    5.379159   -2.443608    0.089194
 H    3.350139   -3.668986    0.095878
 H    3.017771   -2.413272    1.276422
 H    0.151418   -2.203497   -0.534813
