55 
2drc_ligand_xtb.xyz
 N   -3.694425   -2.043492    0.683903
 C   -2.653835   -2.697520    0.211938
 N   -2.545835   -4.005202    0.519881
 N   -1.670869   -2.202613   -0.581431
 C   -1.747178   -0.937310   -0.960236
 N   -0.836207   -0.417498   -1.780415
 C   -2.812156   -0.117006   -0.453582
 N   -2.774992    1.203266   -0.628582
 C   -3.654462    1.929805    0.028700
 C   -4.684743    1.302875    0.757259
 N   -4.755997    0.008351    0.924052
 C   -3.769238   -0.739021    0.388971
 C   -3.424871    3.423794    0.052455
 N   -2.102854    3.795561   -0.422037
 C   -2.069502    4.456011   -1.706268
 C    1.002306    1.168444    0.654635
 C    1.035971    1.841338   -0.563137
 C    0.038702    2.730234   -0.913540
 C   -1.043131    2.986177   -0.059235
 C   -1.015806    2.376450    1.206875
 C   -0.032944    1.476509    1.539848
 C    1.950202    0.096607    1.036195
 O    1.686776   -0.740834    1.884918
 N    3.132439    0.082492    0.371523
 C    4.173300   -0.863712    0.668926
 C    5.509514   -0.148133    0.590570
 O    5.669856    0.945682    0.119177
 O    6.508039   -0.881546    1.084344
 C    4.193461   -2.069200   -0.296676
 C    3.036944   -3.033270   -0.048841
 C    1.719959   -2.554942   -0.623782
 O    1.627369   -1.662522   -1.441184
 O    0.704516   -3.248263   -0.176454
 H   -1.666851   -4.466090    0.361382
 H   -3.172849   -4.359064    1.220670
 H    0.064155   -0.890845   -1.879140
 H   -0.862837    0.586079   -1.882517
 H   -5.472665    1.886758    1.217682
 H   -4.171140    3.924162   -0.569826
 H   -3.573320    3.777223    1.080917
 H   -2.203660    3.762495   -2.545654
 H   -2.864557    5.200314   -1.738961
 H   -1.121318    4.979178   -1.821384
 H    1.809804    1.631727   -1.287068
 H    0.088317    3.191678   -1.886688
 H   -1.797461    2.584685    1.920824
 H   -0.052476    0.976984    2.496935
 H    3.383274    0.828198   -0.258306
 H    4.017942   -1.232501    1.690934
 H    7.351060   -0.405497    1.009980
 H    4.138910   -1.698806   -1.322472
 H    5.136748   -2.598366   -0.157056
 H    3.251588   -3.998760   -0.514101
 H    2.885276   -3.202889    1.017585
 H   -0.205448   -2.866293   -0.458910
