20 
2dri_ligand_ani-2x.xyz
 C    1.560149    0.416160   -0.128023
 C    0.854800   -0.814923    0.425170
 C   -0.558991   -0.470318    0.910690
 C   -1.315811    0.316909   -0.167942
 C   -0.482513    1.473233   -0.681650
 O    1.812956    1.259936    0.963290
 O    0.777939   -1.843879   -0.550064
 O   -1.265405   -1.664777    1.192214
 O   -1.591217   -0.541692   -1.269462
 O    0.795058    1.036300   -1.129939
 H    2.491191    0.117281   -0.626423
 H    1.440712   -1.213463    1.257656
 H   -0.509673    0.131412    1.826049
 H   -2.257226    0.695778    0.258580
 H   -0.968440    1.927223   -1.547363
 H   -0.369280    2.228800    0.106567
 H    2.230324    2.061717    0.620065
 H    0.235227   -1.482035   -1.274872
 H   -0.784040   -2.355844    0.705456
 H   -2.095859   -1.277818   -0.890201
