20 
2dri_ligand_aiqm1.xyz
 C    1.553751    0.432366   -0.130763
 C    0.859835   -0.811882    0.414761
 C   -0.543043   -0.470385    0.899444
 C   -1.316551    0.293195   -0.178781
 C   -0.503824    1.468293   -0.676672
 O    1.802695    1.273764    0.972280
 O    0.813449   -1.834301   -0.563594
 O   -1.250304   -1.648522    1.259752
 O   -1.587328   -0.546302   -1.304877
 O    0.787956    1.067064   -1.124312
 H    2.480916    0.151663   -0.628259
 H    1.446599   -1.205508    1.244616
 H   -0.472410    0.163167    1.785011
 H   -2.258294    0.653012    0.242337
 H   -0.995999    1.914231   -1.537664
 H   -0.416518    2.212956    0.120006
 H    2.345004    2.004390    0.669701
 H    0.242754   -1.511195   -1.274675
 H   -0.811243   -2.371310    0.797796
 H   -2.177543   -1.234697   -0.986304
