16 
2dw7_ligand_ani-2x.xyz
 O    2.028201    0.722833   -0.839142
 O    1.943016    0.779436    1.405937
 C    1.577654    0.316445    0.349962
 C    0.585196   -0.828898    0.252277
 O    0.067705   -1.101350    1.522909
 C   -0.553713   -0.553457   -0.750514
 O   -1.306226   -1.714290   -0.941414
 C   -1.465727    0.552666   -0.238604
 O   -2.609129    0.363280    0.102973
 O   -0.874899    1.753553   -0.217590
 H    2.639293    1.460669   -0.675258
 H    1.116584   -1.706420   -0.144624
 H    0.599333   -0.582193    2.150269
 H   -0.108761   -0.238201   -1.702128
 H   -2.109539   -1.606392   -0.406939
 H   -1.528887    2.382118    0.131785
