16 
2dw7_ligand_dft.xyz
 O   -2.055780    0.142655    1.302746
 O   -2.253019    0.407997   -0.920911
 C   -1.679747   -0.056137    0.037284
 C   -0.470985   -0.966596   -0.092232
 O   -0.131770   -1.103195   -1.441974
 C    0.759041   -0.475802    0.707411
 O    1.743703   -1.459847    0.754429
 C    1.315588    0.783008    0.056495
 O    2.387792    0.840001   -0.490074
 O    0.460343    1.813834    0.134663
 H   -2.825112    0.734526    1.283660
 H   -0.739743   -1.940954    0.340604
 H   -0.800427   -0.609087   -1.943957
 H    0.450149   -0.246791    1.732699
 H    2.303578   -1.330230   -0.026094
 H    0.858027    2.554135   -0.351682
