63 
2dxs_ligand_aiqm1.xyz
 C  -18.209600   -5.814287    2.159609
 C  -17.008387   -5.037180    1.609825
 N  -16.028376   -4.768566    2.677784
 C  -15.419922   -5.659089    3.492149
 C  -14.542191   -5.106868    4.558740
 C  -13.611535   -5.996617    5.128872
 C  -12.735924   -5.595782    6.119416
 C  -12.787142   -4.266821    6.575767
 C  -13.745937   -3.391180    6.011855
 N  -13.613541   -2.174655    6.635942
 C  -12.585825   -2.258446    7.566004
 C  -12.220505   -1.053944    8.328099
 C  -12.121394    0.185944    7.667095
 C  -11.790522    1.337520    8.373416
 C  -11.564707    1.272396    9.746706
 C  -11.671581    0.056337   10.414726
 C  -11.997907   -1.097949    9.706693
 O  -12.227694    0.256279    6.299644
 C  -13.522987    0.096735    5.726718
 C  -14.369342   -0.966928    6.415292
 C  -12.050866   -3.521814    7.560912
 C  -10.883540   -4.018766    8.374628
 C   -9.735937   -4.513992    7.489387
 C   -8.545515   -4.940972    8.344263
 C   -8.956713   -6.023528    9.339565
 C  -10.101497   -5.534410   10.223725
 C  -11.294636   -5.103199    9.375609
 C  -14.622527   -3.786532    4.998423
 O  -15.555803   -6.878505    3.346212
 C  -16.396263   -5.835628    0.431105
 O  -15.755116   -6.960922    0.730633
 O  -16.545636   -5.478578   -0.709244
 C  -17.460035   -3.671870    1.105178
 H  -18.933182   -5.973190    1.361040
 H  -17.907154   -6.779420    2.557724
 H  -18.682621   -5.241968    2.959053
 H  -15.766490   -3.804732    2.773581
 H  -13.607145   -7.013809    4.764767
 H  -12.030142   -6.303625    6.534732
 H  -11.699737    2.272149    7.834208
 H  -11.308375    2.171656   10.290108
 H  -11.501459   -0.000972   11.480774
 H  -12.079383   -2.043793   10.226939
 H  -13.336507   -0.185994    4.689565
 H  -14.063458    1.049614    5.749417
 H  -14.728029   -0.598655    7.380691
 H  -15.240987   -1.193723    5.804474
 H  -10.489311   -3.176607    8.951739
 H   -9.446540   -3.728776    6.787920
 H  -10.071884   -5.365444    6.889720
 H   -8.170720   -4.072170    8.896755
 H   -7.729509   -5.292491    7.710012
 H   -8.104199   -6.323966    9.952117
 H   -9.283979   -6.912235    8.788563
 H   -9.755807   -4.677281   10.813342
 H  -10.397765   -6.310533   10.932502
 H  -11.691804   -5.967254    8.833515
 H  -12.103793   -4.735268   10.014247
 H  -15.353309   -3.088899    4.601826
 H  -15.715041   -7.089178    1.707381
 H  -16.608316   -3.101525    0.730114
 H  -18.167725   -3.793415    0.291919
 H  -17.941925   -3.121183    1.915810
