45 
2e1w_ligand_aiqm1.xyz
 C    2.346066    0.382087   -1.166368
 N    2.082021   -0.215597    0.034831
 C    3.077940    0.157254    0.887010
 N    3.945611    0.961650    0.312668
 C    3.492009    1.112880   -0.974082
 C    4.173058    1.965020   -1.966937
 O    3.752791    2.107804   -3.106867
 N    5.288588    2.571131   -1.493239
 C    0.928407   -1.068800    0.327284
 C    1.377442   -2.529760    0.401301
 O    2.193564   -2.648042    1.563770
 C    0.195911   -0.580662    1.573035
 C   -0.292958    0.873076    1.472221
 C   -1.233823    1.109669    0.313012
 C   -0.784978    1.766858   -0.808560
 C   -1.615767    1.963356   -1.938397
 C   -2.899315    1.491588   -1.934665
 C   -3.413067    0.823896   -0.793826
 C   -2.584397    0.636830    0.345818
 C   -4.749230    0.346360   -0.772476
 C   -3.147111   -0.006199    1.484155
 C   -5.257286   -0.280898    0.335344
 C   -4.445355   -0.451435    1.479502
 C    0.211149   -3.502444    0.441919
 H    1.712555    0.270808   -2.028451
 H    3.132566   -0.206598    1.898270
 H    5.813381    3.167768   -2.102963
 H    5.571877    2.405473   -0.544518
 H    0.269916   -0.978259   -0.537566
 H    1.973878   -2.735535   -0.492817
 H    2.718683   -3.444693    1.490242
 H   -0.659051   -1.237649    1.736695
 H    0.850896   -0.688057    2.438486
 H    0.570524    1.532586    1.361234
 H   -0.776292    1.146902    2.411519
 H    0.234169    2.134776   -0.835397
 H   -1.221553    2.483058   -2.800269
 H   -3.541514    1.627664   -2.796767
 H   -5.368268    0.494514   -1.649835
 H   -2.548575   -0.131065    2.377058
 H   -6.279262   -0.636263    0.341827
 H   -4.854041   -0.930211    2.359540
 H   -0.453466   -3.346262   -0.408016
 H   -0.364236   -3.384772    1.360058
 H    0.576643   -4.529708    0.405115
