45 
2e1w_ligand_ani-2x.xyz
 C    2.329031    0.439304   -1.144162
 N    2.131090   -0.292041    0.003641
 C    3.178061    0.003687    0.825462
 N    4.004643    0.870951    0.292272
 C    3.479474    1.152013   -0.941728
 C    4.075945    2.118941   -1.893023
 O    3.546788    2.360297   -2.967395
 N    5.228001    2.687573   -1.463386
 C    0.983908   -1.148783    0.312790
 C    1.453227   -2.600130    0.496757
 O    2.086814   -2.695392    1.768585
 C    0.186570   -0.624326    1.513998
 C   -0.256950    0.846870    1.375899
 C   -1.227708    1.115060    0.248694
 C   -0.801364    1.755832   -0.891274
 C   -1.644442    1.931018   -2.012749
 C   -2.932248    1.474376   -1.975944
 C   -3.440031    0.849178   -0.804871
 C   -2.595317    0.688006    0.328649
 C   -4.783873    0.391020   -0.742820
 C   -3.160025    0.107765    1.502189
 C   -5.286104   -0.178580    0.394002
 C   -4.464580   -0.315054    1.533651
 C    0.319156   -3.610575    0.393844
 H    1.669736    0.391919   -2.000134
 H    3.281540   -0.462543    1.797415
 H    5.682776    3.366774   -2.052399
 H    5.601349    2.458999   -0.553976
 H    0.357248   -1.098460   -0.584425
 H    2.192520   -2.783993   -0.294334
 H    2.415472   -3.598368    1.856490
 H   -0.689943   -1.268804    1.646281
 H    0.796253   -0.732247    2.415550
 H    0.640696    1.458587    1.221122
 H   -0.689716    1.177034    2.329081
 H    0.216178    2.136112   -0.939789
 H   -1.258121    2.426560   -2.900412
 H   -3.590761    1.593485   -2.833115
 H   -5.411041    0.509854   -1.623896
 H   -2.545676   -0.000651    2.391262
 H   -6.316948   -0.521938    0.429208
 H   -4.869025   -0.758743    2.439109
 H   -0.204288   -3.515080   -0.562629
 H   -0.401589   -3.474310    1.206354
 H    0.713375   -4.631095    0.460058
