33 
2e2r_ligand_ani-2x.xyz
 O  -15.626818   -8.556502  -26.097086
 C  -15.867137   -7.242908  -26.365264
 C  -15.012564   -6.602617  -27.262391
 C  -15.214660   -5.265784  -27.567707
 C  -16.915053   -6.531647  -25.789286
 C  -17.102091   -5.189138  -26.106728
 C  -16.259085   -4.528344  -26.997530
 C  -16.379499   -3.035635  -27.337289
 C  -17.700804   -2.428393  -26.837701
 C  -15.228537   -2.307169  -26.623943
 C  -16.333599   -2.846354  -28.860430
 C  -17.186186   -3.616794  -29.659903
 C  -17.237715   -3.459356  -31.036055
 C  -15.525182   -1.908601  -29.499175
 C  -15.562547   -1.737698  -30.880265
 C  -16.421549   -2.512068  -31.653793
 O  -16.509298   -2.394395  -33.007889
 H  -16.286100   -8.874379  -25.467368
 H  -14.200585   -7.168715  -27.707766
 H  -14.560799   -4.780022  -28.291262
 H  -17.590967   -7.020548  -25.088958
 H  -17.934175   -4.666127  -25.644173
 H  -18.569837   -2.923918  -27.285571
 H  -17.778592   -2.495438  -25.747236
 H  -17.744022   -1.368614  -27.108537
 H  -15.299193   -2.476335  -25.544717
 H  -14.249854   -2.671910  -26.956427
 H  -15.279691   -1.226413  -26.794334
 H  -17.805523   -4.378582  -29.187584
 H  -17.901464   -4.059715  -31.650174
 H  -14.838197   -1.292047  -28.926678
 H  -14.918403   -0.995909  -31.350540
 H  -15.896172   -1.709922  -33.304240
