58 
2e7f_ligand_ani-2x.xyz
 N   -5.953757    0.471301    2.177795
 C   -5.773158    1.747690    2.331454
 N   -6.220995    2.376443    3.466180
 N   -5.188347    2.547850    1.386188
 C   -4.770548    2.098493    0.116474
 O   -4.331123    2.899038   -0.692185
 C   -4.935180    0.667227   -0.048257
 N   -4.515368    0.049272   -1.230890
 C   -4.330411   -1.405719   -1.140143
 C   -5.495513   -2.058549   -0.397464
 N   -5.651436   -1.413695    0.895703
 C   -5.512782   -0.063261    1.001216
 C   -2.975732   -1.725699   -0.494308
 N   -1.933638   -0.997145   -1.181652
 C   -5.161476    0.520225   -2.449824
 C    2.135618   -1.357200   -0.213425
 C    1.684474   -0.364210   -1.089217
 C    0.337819   -0.246000   -1.387316
 C   -0.605667   -1.120216   -0.822183
 C   -0.153847   -2.110236    0.061500
 C    1.196061   -2.217175    0.355977
 C    3.561058   -1.567081    0.175386
 O    3.876995   -2.410601    1.009549
 N    4.497809   -0.789727   -0.423370
 C    5.886848   -0.974309   -0.099851
 C    6.781146   -0.000258   -0.884661
 C    6.547311    1.488674   -0.600892
 C    5.449505    2.128873   -1.417158
 O    5.479147    3.464205   -1.318465
 O    4.613404    1.557780   -2.090655
 C    6.126800   -0.780682    1.397783
 O    7.115256   -1.580888    1.829070
 O    5.573979    0.027597    2.101468
 H   -6.484459    1.720732    4.190200
 H   -5.668693    3.150516    3.807589
 H   -5.140310    3.552584    1.505031
 H   -4.296442   -1.775473   -2.171104
 H   -6.408827   -1.975376   -1.009573
 H   -5.296437   -3.124809   -0.240864
 H   -6.246899   -1.831518    1.595863
 H   -2.784984   -2.802389   -0.588467
 H   -3.005339   -1.498054    0.583771
 H   -2.213813   -0.068097   -1.471072
 H   -5.009161    1.598040   -2.534058
 H   -4.686349    0.038539   -3.309084
 H   -6.241569    0.306037   -2.469483
 H    2.369397    0.344621   -1.552268
 H    0.007338    0.527449   -2.077670
 H   -0.856072   -2.794343    0.529557
 H    1.549408   -2.981749    1.041668
 H    4.270823   -0.134807   -1.160771
 H    6.201460   -1.997180   -0.331638
 H    7.818101   -0.248965   -0.633814
 H    6.658293   -0.203653   -1.955028
 H    6.302013    1.650131    0.456462
 H    7.459617    2.059765   -0.799486
 H    4.750903    3.799121   -1.868753
 H    7.222786   -1.396477    2.777151
