48 
2e98_ligand_dft.xyz
 C   43.058031   33.920281   56.383418
 C   43.823512   32.764539   56.537874
 C   43.880798   31.863143   55.482323
 C   43.188369   32.104879   54.287609
 C   42.420126   33.251209   54.113810
 C   42.377966   34.134907   55.180008
 O   41.679039   35.311612   55.197205
 C   41.904384   35.872260   56.425402
 C   42.745948   35.072652   57.208980
 C   43.098970   35.490522   58.490584
 C   42.596979   36.702480   58.946003
 C   41.761674   37.482970   58.141125
 C   41.387173   37.095968   56.850424
 C   40.509341   37.941554   56.006738
 C   40.666387   39.331164   56.012732
 C   39.499948   37.383254   55.215004
 C   38.676049   38.202096   54.450223
 C   38.837046   39.585833   54.470905
 C   39.833186   40.163388   55.265124
 C   39.967569   41.663840   55.364750
 C   39.309933   42.233542   56.642980
 P   39.579962   44.058753   56.791936
 O   38.464753   44.735659   57.509277
 O   41.046616   44.133534   57.416285
 O   39.849213   44.652220   55.329955
 P   37.486013   41.875282   56.695670
 O   36.868496   42.141362   55.379264
 O   37.446692   40.355518   57.241133
 O   36.936570   42.592847   57.997778
 O   39.941330   41.736682   57.823786
 H   44.361606   32.573703   57.461384
 H   44.470414   30.957333   55.581460
 H   43.252482   31.383120   53.479297
 H   41.880929   33.451683   53.194889
 H   43.747659   34.884397   59.115098
 H   42.847810   37.050636   59.942810
 H   41.370297   38.416125   58.536268
 H   41.464160   39.775076   56.601894
 H   39.362132   36.307906   55.197365
 H   37.900252   37.759486   53.832705
 H   38.179356   40.224331   53.887610
 H   41.025738   41.947666   55.388053
 H   39.514613   42.146947   54.496008
 H   41.151926   43.408404   58.057213
 H   39.086223   45.168945   55.033764
 H   37.515940   39.729275   56.501495
 H   37.248231   43.530247   58.013806
 H   39.508162   40.904771   58.070577
