62 
2e9n_ligand_dft.xyz
 O  -13.113510    9.036553  -14.327259
 C   -9.410591    9.417729  -16.210363
 C   -9.810997    8.183977  -15.690796
 C  -11.039101    8.029827  -15.057900
 C  -11.898894    9.120375  -14.933776
 C  -11.518706   10.360877  -15.446155
 C  -10.290183   10.499671  -16.073778
 C   -5.601592    9.884650  -18.169557
 C   -5.725125    9.097325  -17.022171
 C   -6.952461    8.948573  -16.389351
 C   -8.099265    9.577263  -16.883872
 C   -7.969922   10.363486  -18.035898
 C   -6.745381   10.517617  -18.667391
 C   -4.300466   10.043014  -18.836007
 N   -4.182299   10.812018  -19.925427
 N   -2.886871   10.746754  -20.287057
 C   -2.176284    9.956932  -19.456219
 C   -3.046679    9.480477  -18.504144
 C   -0.826383    9.458057  -19.248474
 C   -0.898085    8.634335  -18.102003
 C   -2.314738    8.587945  -17.542070
 C    0.377179    9.651874  -19.913803
 C    1.513940    9.003957  -19.436086
 C    1.451253    8.176428  -18.311380
 C    0.237938    8.005173  -17.632926
 C    2.650889    7.464099  -17.755060
 N    3.663051    7.217117  -18.637723
 O    2.711287    7.134347  -16.578514
 C    4.840234    6.458772  -18.244612
 C    4.579358    4.946569  -18.240129
 C    5.838317    4.166782  -17.856246
 C    7.004849    4.511116  -18.774063
 C    7.267362    6.019472  -18.769014
 C    6.016415    6.811558  -19.157269
 O    8.128307    3.778602  -18.321461
 H    8.872681    3.991864  -18.896655
 H    6.739877    4.205698  -19.802704
 H    7.594484    6.303610  -17.760452
 H    8.090649    6.260825  -19.454423
 H    5.746659    6.577491  -20.199044
 H    6.212126    7.888221  -19.111252
 H    5.073591    6.769583  -17.220809
 H    3.765140    4.729585  -17.542584
 H    4.242539    4.643419  -19.242523
 H    6.131161    4.408453  -16.826190
 H    5.654109    3.088340  -17.891860
 H    3.453711    7.263185  -19.624267
 H    2.465838    9.180813  -19.928768
 H    0.442345   10.301539  -20.781418
 H    0.222855    7.380288  -16.745210
 H   -2.342037    8.956817  -16.509387
 H   -2.702647    7.562006  -17.529006
 H   -2.584925   11.265647  -21.094731
 H   -6.663096   11.125005  -19.562581
 H   -8.849785   10.843131  -18.455948
 H   -7.016528    8.354327  -15.481953
 H   -4.852574    8.601734  -16.606784
 H   -9.995611   11.476373  -16.447441
 H  -12.192205   11.204120  -15.335067
 H  -13.249778    8.133991  -14.015628
 H  -11.331229    7.055947  -14.670278
 H   -9.162201    7.319665  -15.802085
