19 
2eg7_ligand_ani-2x.xyz
 N    1.158327   -0.032559   -1.180006
 N   -1.142742    0.281634   -1.195350
 C   -1.231340   -0.031305    0.151503
 C   -0.154849   -0.414055    0.846480
 C    1.150492   -0.608009    0.152062
 O    3.375714    0.240033    0.265801
 C    2.307822   -0.084144    1.014270
 O    2.305334   -0.032922    2.216745
 C   -2.566465    0.078973    0.812340
 O   -3.528892    0.470342   -0.046686
 O   -2.778888   -0.151958    1.976848
 C    0.054329    0.334651   -1.898237
 O    0.098075    0.689760   -3.059299
 H    2.026352   -0.019127   -1.693584
 H   -1.963947    0.572679   -1.707151
 H   -0.204400   -0.630131    1.902398
 H    1.377253   -1.694224    0.084827
 H    4.067840    0.518292    0.887630
 H   -4.350013    0.512071    0.469507
