48 
2ew5_ligand_xtb.xyz
 C  -74.561451  -64.919514   55.622106
 C  -75.003149  -65.820811   56.576174
 C  -76.358619  -66.018459   56.769735
 C  -77.291860  -65.314843   56.018117
 C  -78.761224  -65.574358   56.186279
 C  -79.199360  -66.760936   55.309071
 N  -78.953123  -66.509751   53.911397
 C  -79.940628  -66.147812   53.051859
 O  -81.116793  -66.145499   53.365130
 C  -79.455755  -65.789325   51.700523
 C  -80.323209  -65.396256   50.762205
 C  -80.031724  -65.000861   49.397841
 C  -81.078375  -64.539216   48.597034
 C  -80.854815  -64.143591   47.292948
 O  -81.940613  -63.738445   46.530920
 C  -81.902801  -62.557275   45.882406
 O  -81.026884  -61.746753   45.999985
 C  -83.120105  -62.412292   45.011287
 C  -79.568296  -64.213847   46.745551
 O  -79.433989  -63.863890   45.417547
 C  -78.366533  -63.164394   44.970328
 O  -77.400175  -62.900233   45.625404
 C  -78.598101  -62.763084   43.541110
 C  -78.523285  -64.675980   47.534484
 C  -78.752891  -65.056968   48.840839
 C  -76.838127  -64.412013   55.063427
 C  -75.482377  -64.214498   54.866356
 H  -73.503517  -64.764675   55.470758
 H  -74.288982  -66.370774   57.171466
 H  -76.699056  -66.722324   57.516107
 H  -79.336600  -64.694573   55.893843
 H  -78.989290  -65.811001   57.226325
 H  -80.273754  -66.925708   55.413906
 H  -78.659299  -67.664199   55.609970
 H  -77.989620  -66.390911   53.639108
 H  -78.391958  -65.852362   51.525501
 H  -81.366082  -65.362524   51.054537
 H  -82.081503  -64.479283   48.990568
 H  -83.247115  -61.371610   44.729663
 H  -82.980227  -63.013703   44.114920
 H  -83.998395  -62.778739   45.534628
 H  -77.656534  -62.480267   43.081013
 H  -79.071096  -63.572115   42.991868
 H  -79.269125  -61.905380   43.542907
 H  -77.530472  -64.729209   47.119015
 H  -77.923107  -65.412666   49.430000
 H  -77.554005  -63.853391   54.475916
 H  -75.144806  -63.507379   54.122615
