39 
2ew6_ligand_xtb.xyz
 C  -53.688391  -91.957074  101.511898
 O  -52.334348  -91.906113  101.380234
 C  -54.457592  -91.064011  100.773010
 C  -55.834051  -91.088515  100.879198
 C  -56.475404  -91.996080  101.716058
 C  -57.974250  -92.061006  101.771003
 C  -58.505728  -93.081953  100.748093
 N  -58.124084  -92.737521   99.402430
 C  -58.987915  -92.155356   98.526176
 C  -58.359624  -91.733658   97.259639
 C  -59.097505  -91.158724   96.301874
 C  -58.663302  -90.676662   95.009130
 C  -59.605965  -90.129376   94.136640
 C  -59.242699  -89.657683   92.891512
 C  -57.919489  -89.717081   92.478894
 O  -57.557561  -89.255407   91.259308
 C  -56.960957  -90.263340   93.347236
 O  -55.665214  -90.295097   92.885962
 C  -57.329652  -90.733793   94.588479
 O  -60.174085  -92.024789   98.769121
 C  -55.697525  -92.883393  102.447522
 C  -54.318135  -92.866227  102.352986
 H  -51.924779  -92.560932  101.958202
 H  -53.957751  -90.358651  100.128183
 H  -56.422349  -90.384503  100.307570
 H  -58.402570  -91.084291  101.541114
 H  -58.306342  -92.362483  102.765176
 H  -59.597439  -93.097539  100.769242
 H  -58.120758  -94.078963  100.985555
 H  -57.135263  -92.722045   99.206851
 H  -57.298282  -91.908272   97.158072
 H  -60.152495  -91.039734   96.518721
 H  -60.639169  -90.076559   94.443772
 H  -59.970840  -89.236117   92.217666
 H  -56.603502  -89.383697   91.161332
 H  -55.095537  -90.685063   93.557129
 H  -56.571855  -91.148754   95.237933
 H  -56.174874  -93.595729  103.104870
 H  -53.725118  -93.560209  102.934609
