39 
2ew6_ligand_dft.xyz
 C    4.092175    2.429838    0.281479
 O    4.146450    3.790027    0.250678
 C    2.971186    1.842980    0.868038
 C    2.868644    0.459344    0.924837
 C    3.867057   -0.371581    0.403780
 C    3.703571   -1.871049    0.401928
 C    3.025882   -2.377776   -0.885125
 N    1.735612   -1.760197   -1.121724
 C    0.642127   -2.130699   -0.385358
 C   -0.538478   -1.240088   -0.538016
 C   -1.649633   -1.486096    0.166887
 C   -2.901329   -0.728967    0.172629
 C   -3.952595   -1.167532    0.981992
 C   -5.165277   -0.486447    1.028173
 C   -5.347616    0.653738    0.260437
 O   -6.520647    1.325145    0.296795
 C   -4.297853    1.105934   -0.557660
 O   -4.581888    2.238899   -1.272480
 C   -3.096154    0.428185   -0.601922
 O    0.646373   -3.123150    0.332647
 C    4.978934    0.236415   -0.179177
 C    5.100062    1.621386   -0.242666
 H    4.977674    4.063876   -0.154628
 H    2.197595    2.482540    1.280248
 H    1.993511    0.011613    1.389850
 H    3.091405   -2.190155    1.251463
 H    4.678045   -2.364354    0.498683
 H    2.870677   -3.456841   -0.819358
 H    3.659934   -2.172804   -1.753889
 H    1.745024   -0.824554   -1.500396
 H   -0.459431   -0.397499   -1.222093
 H   -1.615150   -2.359789    0.816645
 H   -3.819987   -2.059541    1.587202
 H   -5.981034   -0.827555    1.656298
 H   -6.446457    2.082198   -0.302211
 H   -3.820528    2.491584   -1.806541
 H   -2.301049    0.801359   -1.243306
 H    5.772984   -0.382228   -0.591561
 H    5.980977    2.070629   -0.697004
