28 
2exm_ligand_ani-2x.xyz
 C   67.798634   34.473398   22.517299
 C   68.575255   34.249929   21.245109
 C   67.759956   33.733865   20.086007
 C   69.883248   34.480184   21.110395
 C   70.837275   34.987126   22.153759
 N   72.152763   34.400629   21.948857
 C   73.280803   34.945779   22.461169
 C   74.496517   34.236455   22.434814
 N   74.828759   32.969562   21.984254
 C   75.595183   34.900499   22.959644
 N   76.631631   34.011564   22.820443
 C   76.105349   32.885030   22.234165
 N   75.619058   36.133831   23.484710
 C   74.412910   36.685429   23.449378
 N   73.261597   36.180196   22.977880
 H   68.416771   34.862430   23.329197
 H   67.337126   33.538155   22.857137
 H   66.981985   35.185986   22.348076
 H   68.373316   33.596195   19.189287
 H   66.944499   34.426459   19.842765
 H   67.292196   32.772910   20.334128
 H   70.333368   34.320161   20.128698
 H   70.475944   34.790480   23.174989
 H   70.973064   36.071993   22.081284
 H   72.209605   33.415396   21.723820
 H   77.587229   34.168814   23.101257
 H   76.727685   32.025515   22.015814
 H   74.338276   37.692032   23.857666
