51 
2f10_ligand_aiqm1.xyz
 C    1.601710   -0.929083    0.713244
 N    2.612167    0.104112    0.959106
 C    2.363271    1.331594    1.485336
 N    3.457096    2.191120    1.409394
 N    1.212875    1.647803    1.973739
 C    0.565866   -0.511860   -0.381317
 C   -0.905443   -0.567049    0.078071
 C   -1.870428    0.021638   -0.978487
 C   -3.309526   -0.027347   -0.451075
 C   -4.369501    0.136156   -1.536979
 C   -1.485686    1.412469   -1.509421
 C   -1.301892    2.512696   -0.460128
 N   -1.038405    0.088181    1.370149
 C   -1.599452   -0.556357    2.417686
 C   -1.423730    0.148954    3.745976
 O   -2.226824   -1.602504    2.313092
 C    0.847151   -1.414059   -1.604454
 O   -0.081984   -2.489467   -1.619386
 C    2.266387   -2.011081   -1.379320
 C    3.354031   -1.143760   -1.950129
 O    4.199311   -0.547872   -1.323756
 O    3.295466   -1.087030   -3.294619
 C    2.325091   -2.164664    0.148098
 H    1.107748   -1.161343    1.652212
 H    3.422077    0.052686    0.360029
 H    4.355492    1.738697    1.464736
 H    3.396576    2.983218    2.027693
 H    1.233380    2.580638    2.373534
 H    0.806636    0.513892   -0.659136
 H   -1.195917   -1.610154    0.237860
 H   -1.821871   -0.658410   -1.841542
 H   -3.444172    0.742710    0.313727
 H   -3.453411   -0.980968    0.057346
 H   -4.294585    1.102060   -2.041773
 H   -4.279486   -0.642957   -2.298568
 H   -5.370761    0.068395   -1.109169
 H   -2.263590    1.723298   -2.213681
 H   -0.572000    1.337040   -2.114505
 H   -0.368670    2.393948    0.089840
 H   -2.113485    2.508369    0.266249
 H   -1.284028    3.497787   -0.933484
 H   -0.378643    0.837659    1.577046
 H   -1.566855   -0.566647    4.551356
 H   -2.175220    0.934193    3.837157
 H   -0.435851    0.608526    3.812604
 H    0.793840   -0.849204   -2.542311
 H   -0.038526   -2.917356   -2.476550
 H    2.330033   -2.971219   -1.890730
 H    4.008675   -0.501938   -3.579418
 H    1.774539   -3.064982    0.415768
 H    3.340322   -2.240623    0.538792
