51 
2f10_ligand_ani-2x.xyz
 C    1.665259   -0.847048    0.672072
 N    2.689272    0.170513    0.852260
 C    2.477237    1.357212    1.490121
 N    3.612002    2.167109    1.526035
 N    1.325159    1.680214    1.968029
 C    0.590895   -0.467859   -0.411382
 C   -0.876554   -0.539452    0.071264
 C   -1.884195    0.050356   -0.960991
 C   -3.324698   -0.059646   -0.428247
 C   -4.397122    0.015048   -1.515745
 C   -1.563764    1.462311   -1.495337
 C   -1.428934    2.595172   -0.474181
 N   -0.997905    0.066729    1.384557
 C   -1.600017   -0.580618    2.419683
 C   -1.499424    0.137718    3.751356
 O   -2.194133   -1.643571    2.291393
 C    0.876720   -1.370691   -1.640182
 O   -0.131499   -2.369132   -1.726401
 C    2.250098   -2.044685   -1.376203
 C    3.396738   -1.267108   -1.989015
 O    4.354546   -0.801543   -1.407802
 O    3.261871   -1.147452   -3.322959
 C    2.309467   -2.141023    0.155274
 H    1.196188   -1.001849    1.647560
 H    3.514801    0.095660    0.271479
 H    4.482571    1.668765    1.662477
 H    3.528624    2.941502    2.169848
 H    1.352691    2.588261    2.421124
 H    0.801106    0.577001   -0.678487
 H   -1.167829   -1.585580    0.207579
 H   -1.820593   -0.628515   -1.824941
 H   -3.508901    0.726926    0.314110
 H   -3.422248   -1.011689    0.108643
 H   -4.398714    0.980157   -2.035240
 H   -4.254147   -0.770363   -2.267121
 H   -5.391980   -0.121479   -1.079528
 H   -2.365067    1.727743   -2.196153
 H   -0.654630    1.420009   -2.109974
 H   -0.501835    2.526043    0.103655
 H   -2.268542    2.611792    0.229377
 H   -1.415107    3.562674   -0.988827
 H   -0.331815    0.814118    1.603499
 H   -1.850466   -0.533740    4.535649
 H   -2.123421    1.038791    3.748879
 H   -0.469842    0.445949    3.963155
 H    0.898577   -0.778851   -2.566286
 H   -0.076837   -2.762961   -2.605337
 H    2.261755   -3.032540   -1.852787
 H    4.041105   -0.653747   -3.630727
 H    1.706392   -2.996196    0.481135
 H    3.326947   -2.270534    0.533537
