64 
2f1g_ligand_dft.xyz
 O    1.365546   -3.160855    0.578021
 C    1.278274   -2.379244   -0.364281
 C    1.977157   -1.008881   -0.350809
 N    1.110454   -0.009584    0.258457
 C    0.072395    0.521811   -0.424063
 O   -0.620320    1.483740    0.228376
 C   -1.570762    1.876917   -0.679863
 C   -2.559119    2.821667   -0.513303
 C   -3.405790    3.006898   -1.607116
 C   -3.241795    2.268464   -2.785527
 C   -2.227804    1.321364   -2.923949
 C   -1.376216    1.130247   -1.841399
 N   -0.302583    0.258107   -1.643009
 C    3.314453   -1.074674    0.381977
 C    4.024768    0.274929    0.534381
 C    4.226403    0.995617   -0.805692
 C    4.972468    2.321690   -0.633564
 C    6.310769    2.125581    0.081900
 C    6.112333    1.419756    1.425831
 C    5.372107    0.091241    1.247690
 N    0.563399   -2.615696   -1.491518
 C   -0.312511   -3.765763   -1.610992
 C   -1.713508   -3.487053   -1.063138
 N   -1.671046   -3.171406    0.351989
 C   -2.180341   -1.973951    0.846243
 C   -3.296750   -1.347312    0.285649
 C   -3.806216   -0.163801    0.817604
 C   -1.595402   -1.377498    1.978382
 C   -2.110681   -0.210217    2.517723
 C   -3.216843    0.414213    1.936321
 O   -3.629370    1.583517    2.515315
 C   -4.886536    2.083125    2.126169
 H    2.132335   -0.687016   -1.384411
 H    1.017446   -0.012523    1.264957
 H   -2.672147    3.365304    0.417587
 H   -4.203062    3.740991   -1.543465
 H   -3.922204    2.440274   -3.614044
 H   -2.103053    0.753728   -3.839985
 H    3.958239   -1.770272   -0.171809
 H    3.151472   -1.533533    1.364664
 H    3.399990    0.925000    1.164899
 H    4.796916    0.339118   -1.480659
 H    3.260015    1.186745   -1.286441
 H    5.126174    2.794701   -1.610258
 H    4.346857    3.007979   -0.045552
 H    6.973016    1.517112   -0.550438
 H    6.809908    3.090482    0.227733
 H    5.529539    2.070846    2.092697
 H    7.078263    1.249746    1.915189
 H    5.215738   -0.391398    2.220611
 H    5.997362   -0.592772    0.654424
 H    0.324982   -1.790465   -2.037838
 H    0.153725   -4.593804   -1.070097
 H   -0.377516   -4.049417   -2.666274
 H   -2.135482   -2.638510   -1.615014
 H   -2.354284   -4.357433   -1.264690
 H   -0.799134   -3.446074    0.789030
 H   -3.800092   -1.789136   -0.567955
 H   -4.659749    0.296680    0.333294
 H   -0.728453   -1.849830    2.435554
 H   -1.657633    0.245167    3.392837
 H   -5.085527    2.942508    2.769012
 H   -5.676445    1.332971    2.266540
 H   -4.890729    2.410916    1.077733
