46 
2f9b_ligand_xtb.xyz
 C   47.380794   -8.868817   12.693060
 C   46.816485   -7.964305   11.760697
 C   47.578152   -7.479759   10.723567
 C   48.890056   -7.931297   10.656897
 C   49.375873   -8.838523   11.631720
 N   48.632323   -9.292295   12.642848
 N   46.597630   -9.402060   13.683542
 N   49.919308   -7.644581    9.801149
 C   50.724954   -9.115433   11.297189
 C   51.023157   -8.389338   10.171186
 C   52.275734   -8.337246    9.425741
 C   53.007912   -9.508252    9.241966
 C   54.189993   -9.505682    8.524030
 C   54.987921  -10.771265    8.332840
 C   56.272300  -10.618669    9.117798
 O   56.185962  -11.192006   10.321984
 O   57.247594  -10.029051    8.743111
 C   54.656802   -8.309835    7.996427
 C   53.962927   -7.120243    8.177441
 C   52.764492   -7.132027    8.902419
 O   52.123356   -5.948313    9.122383
 C   54.503107   -5.864657    7.630682
 C   53.688322   -4.961166    6.949550
 C   54.204688   -3.786325    6.429110
 C   55.544821   -3.486050    6.581046
 C   56.357302   -4.385050    7.261845
 N   57.754415   -4.075483    7.438616
 O   58.420838   -4.831023    8.112636
 O   58.180167   -3.072567    6.904152
 C   55.853153   -5.568010    7.782267
 H   45.786205   -7.665392   11.877145
 H   47.174078   -6.785614   10.000012
 H   45.785159   -8.885289   13.972965
 H   47.100892   -9.888255   14.407115
 H   49.816820   -7.174960    8.915668
 H   51.393411   -9.753329   11.837590
 H   52.622524  -10.426274    9.657633
 H   55.238502  -10.901074    7.279449
 H   54.436920  -11.633546    8.703386
 H   57.000646  -11.048788   10.829681
 H   55.579527   -8.302045    7.436883
 H   51.479480   -6.061231    9.835557
 H   52.641776   -5.187283    6.821991
 H   53.557802   -3.101491    5.902656
 H   55.972475   -2.575854    6.190411
 H   56.515245   -6.237247    8.310962
