46 
2f9b_ligand_aiqm1.xyz
 C   47.362789   -8.919390   12.713663
 C   46.791089   -7.995945   11.799651
 C   47.554507   -7.483531   10.771556
 C   48.871931   -7.929426   10.689473
 C   49.359114   -8.845158   11.641757
 N   48.619433   -9.332667   12.655848
 N   46.565106   -9.485091   13.704429
 N   49.920150   -7.595143    9.841731
 C   50.723779   -9.112842   11.307747
 C   51.022668   -8.371304   10.192743
 C   52.272052   -8.325804    9.424634
 C   52.989838   -9.510855    9.220600
 C   54.179006   -9.522975    8.503009
 C   54.959132  -10.805757    8.310599
 C   56.249395  -10.736451    9.095332
 O   56.037950  -10.939548   10.410468
 O   57.330281  -10.490589    8.630041
 C   54.661714   -8.318169    7.992715
 C   53.984485   -7.114458    8.181068
 C   52.786037   -7.124826    8.909315
 O   52.164113   -5.927782    9.094310
 C   54.532852   -5.850231    7.614046
 C   53.732469   -4.995717    6.844839
 C   54.250233   -3.822267    6.300683
 C   55.579828   -3.474139    6.516664
 C   56.359468   -4.330816    7.280147
 N   57.766105   -3.971617    7.524680
 O   58.431743   -4.727720    8.213355
 O   58.177492   -2.937244    7.022273
 C   55.872012   -5.507815    7.824801
 H   45.754964   -7.705189   11.910160
 H   47.139834   -6.772876   10.067358
 H   45.839586   -8.881449   14.056686
 H   47.114102   -9.903834   14.440766
 H   49.798074   -7.227535    8.912088
 H   51.402562   -9.769043   11.825134
 H   52.598397  -10.432968    9.634291
 H   55.223359  -10.946288    7.263572
 H   54.371515  -11.651431    8.665401
 H   56.892583  -10.831245   10.847790
 H   55.598376   -8.314545    7.444843
 H   51.524807   -5.989891    9.811145
 H   52.690771   -5.248275    6.692169
 H   53.614585   -3.174096    5.711117
 H   56.015420   -2.570573    6.117299
 H   56.536293   -6.132485    8.405007
