47 
2fl5_ligand_aiqm1.xyz
 N   -0.321347    3.311321    0.355410
 C   -0.673794    4.495785    0.972829
 O    0.036001    5.471086    1.016208
 N   -1.947801    4.560303    1.582484
 C   -2.884279    3.561190    1.712319
 O   -3.936317    3.717790    2.286739
 C   -2.449872    2.278561    1.073704
 N   -3.212469    1.239629    1.149386
 C   -2.764026    0.070904    0.582542
 C   -3.543447   -1.090184    0.718742
 C   -3.133409   -2.302654    0.199227
 C   -3.982620   -3.531962    0.354711
 C   -1.887397   -2.372767   -0.477647
 C   -1.404283   -3.683320   -1.030248
 C   -1.108909   -1.233749   -0.625521
 C   -1.542210    0.001876   -0.114903
 N   -0.797809    1.162151   -0.263085
 C   -1.153234    2.301470    0.386121
 C    0.414187    1.158353   -1.097995
 C    1.658582    0.762972   -0.311934
 O    2.137554    1.808210    0.504472
 C    2.758732    0.344776   -1.273109
 O    2.303165   -0.849186   -1.902033
 C    4.103895    0.118479   -0.601579
 O    4.923505   -0.463288   -1.610342
 C    4.024462   -0.801727    0.603837
 O    5.375623   -1.111492    0.941700
 H   -2.174004    5.445586    2.009208
 H   -4.479614   -0.996685    1.257054
 H   -3.447315   -4.317815    0.890320
 H   -4.262999   -3.943568   -0.616450
 H   -4.895062   -3.306234    0.904629
 H   -1.287917   -4.423086   -0.237394
 H   -2.119461   -4.092994   -1.743616
 H   -0.446704   -3.565037   -1.533743
 H   -0.152615   -1.314881   -1.119207
 H    0.551461    2.162744   -1.488857
 H    0.251269    0.484551   -1.932377
 H    1.404051   -0.101362    0.319272
 H    1.502601    2.539511    0.502018
 H    2.902624    1.131625   -2.025299
 H    3.070279   -1.215604   -2.350252
 H    4.518882    1.076523   -0.279257
 H    5.706500   -0.797040   -1.165066
 H    3.466555   -1.708632    0.349920
 H    3.522891   -0.290890    1.424894
 H    5.376096   -1.690940    1.702170
