48 
2fme_ligand_aiqm1.xyz
 C   -0.052125    1.754617   -0.301295
 C    1.256003    1.089888   -0.650075
 C   -2.028032    1.951332    1.057165
 C   -2.439140    3.039377    0.299784
 C   -1.669838    3.511078   -0.763897
 C   -0.459044    2.862666   -1.064838
 C   -1.685512   -1.363999   -0.080889
 C   -2.312636   -2.561148   -0.416466
 C   -2.423426   -3.591205    0.512514
 C   -1.900581   -3.402109    1.785877
 O   -2.835900   -2.777041   -1.660903
 C    0.415291    3.334602   -2.197614
 N    1.478199   -0.165665    0.071466
 C    1.100274   -0.095336    1.477973
 C   -0.412541    0.100015    1.585573
 C   -0.832335    1.296765    0.765015
 C   -1.153154   -1.173546    1.196386
 C   -1.270897   -2.208469    2.132133
 C   -2.157287    4.698890   -1.554845
 C    2.688226   -0.766421   -0.267035
 N    2.996321   -1.945384    0.397221
 C    1.987058   -3.003503    0.444107
 C    4.313875   -2.470734    0.073591
 O    3.443197   -0.276529   -1.093450
 H    2.079104    1.789251   -0.462153
 H    1.292960    0.870824   -1.716415
 H   -2.642156    1.599924    1.878589
 H   -3.373817    3.533240    0.537606
 H   -1.606948   -0.584782   -0.830360
 H   -2.912437   -4.512959    0.231410
 H   -1.980708   -4.195703    2.517055
 H   -2.689823   -1.995774   -2.198541
 H    0.081172    4.288862   -2.598031
 H    1.450516    3.451172   -1.874975
 H    0.426300    2.613043   -3.020030
 H    1.614006    0.751816    1.956550
 H    1.413739   -0.998697    1.990122
 H   -0.639947    0.297315    2.635537
 H   -0.863026   -2.085889    3.129205
 H   -2.285737    4.454997   -2.611526
 H   -3.117281    5.043090   -1.169361
 H   -1.455585    5.534100   -1.498535
 H    0.981763   -2.597164    0.469557
 H    2.081688   -3.646470   -0.439607
 H    2.151576   -3.621625    1.330136
 H    5.059660   -1.686807    0.168717
 H    4.540092   -3.273783    0.774415
 H    4.348698   -2.865618   -0.946666
