31 
2fqw_ligand_aiqm1.xyz
 N    0.623326    0.266375   -0.902037
 C    1.857492    0.305629   -0.325148
 N    2.321510   -0.561178    0.636517
 C    3.534149   -0.272250    0.994616
 N    4.276412    0.753085    0.501013
 C    3.853723    1.695218   -0.483021
 O    4.608369    2.572912   -0.834632
 C    2.506484    1.384398   -0.890533
 N    1.692519    2.012713   -1.804181
 C    0.581297    1.317116   -1.784625
 C   -3.443621    0.700861   -0.213934
 O   -2.636831    1.489867    0.654623
 C   -2.730690   -0.603311   -0.489165
 O   -1.573753   -0.360216   -1.317299
 C   -0.401875   -0.757418   -0.654088
 C   -0.761580   -0.906521    0.829812
 O   -0.021562   -1.904100    1.492410
 C   -2.226355   -1.321304    0.759328
 O   -2.353319   -2.712686    0.536712
 H    4.016054   -0.877819    1.748139
 H    5.214838    0.892214    0.844408
 H   -0.296170    1.515932   -2.373017
 H   -4.411367    0.484277    0.249974
 H   -3.617476    1.213271   -1.162835
 H   -2.990451    2.377899    0.686696
 H   -3.404251   -1.251595   -1.051798
 H   -0.037606   -1.706631   -1.059914
 H   -0.672458    0.068612    1.315326
 H    0.912401   -1.659680    1.403706
 H   -2.772075   -1.022758    1.657482
 H   -1.647031   -3.133113    1.035363
