67 
2fv9_ligand_ani-2x.xyz
 C    0.771463    1.841996    0.657396
 C    1.508524    1.492375    1.969237
 C    0.692199    1.861006    3.217628
 C    0.350010    3.343474    3.355149
 C   -0.961675    0.040948    0.712985
 C    1.598523    1.463997   -0.585310
 C    2.410161   -0.318461   -2.043871
 C    3.601792   -1.244097   -1.737925
 C   -2.420815    0.683729   -1.872577
 C   -2.649637   -0.547209   -1.028675
 C    1.433900   -1.045306   -2.956046
 C    2.890927    2.155128    1.974788
 N   -0.598980    1.339006    0.590881
 O    2.128957    2.339167   -1.259082
 O    0.319326   -1.409823   -2.652452
 O   -1.715151    1.566933   -3.905353
 C    4.607709   -0.681078   -0.725803
 C    5.197330    0.656626   -1.173308
 C    5.716227   -1.702624   -0.474004
 N   -2.075274    0.449597   -3.161155
 O   -2.586347    1.843782   -1.481000
 C   -2.440207   -0.256305    0.468668
 C   -2.881805   -1.431332    1.353767
 O   -0.169654   -0.865574    0.977329
 N    1.740217    0.140932   -0.853753
 O    1.965964   -1.276354   -4.162901
 C   -4.328884   -1.819246    1.153463
 C   -5.356422   -0.926800    1.472277
 C   -6.689700   -1.271731    1.273722
 C   -7.019713   -2.515933    0.743225
 C   -6.007310   -3.412581    0.416709
 C   -4.674474   -3.064384    0.622333
 H    0.693437    2.930103    0.583947
 H    1.641100    0.406390    1.992510
 H    1.271401    1.546411    4.095176
 H   -0.229716    1.269178    3.235488
 H    1.250756    3.965821    3.403499
 H   -0.221980    3.521073    4.271770
 H   -0.260527    3.697537    2.516920
 H    2.753117    0.574834   -2.577133
 H    3.214984   -2.204958   -1.367980
 H    4.111441   -1.462653   -2.684633
 H   -3.686762   -0.867693   -1.193735
 H   -1.996550   -1.362732   -1.358786
 H    3.525483    1.770067    1.168772
 H    2.814000    3.240188    1.836084
 H    3.405943    1.968892    2.923372
 H   -1.265544    1.930801    0.106488
 H   -1.881422    2.291050   -3.267484
 H    4.077711   -0.514913    0.223792
 H    4.427853    1.425460   -1.308210
 H    5.740669    0.547986   -2.122057
 H    5.910364    1.025547   -0.426599
 H    5.307276   -2.657823   -0.124823
 H    6.424061   -1.341903    0.280880
 H    6.280173   -1.896020   -1.395731
 H   -1.451219   -0.326935   -3.367551
 H   -3.019183    0.641982    0.713213
 H   -2.711369   -1.162510    2.403925
 H   -2.226835   -2.283439    1.146666
 H    1.225375   -0.527694   -0.284389
 H    1.302865   -1.766263   -4.677900
 H   -5.110562    0.049856    1.888432
 H   -7.474291   -0.564116    1.531921
 H   -8.061317   -2.784489    0.585810
 H   -6.252621   -4.387251    0.001065
 H   -3.885393   -3.767945    0.361034
