21 
2fw6_ligand_ani-2x.xyz
 C   34.704354   65.857545 -149.246516
 O   33.387961   66.082134 -149.491800
 O   35.267686   66.464329 -148.378445
 C   35.418202   64.931490 -150.213949
 C   36.171698   65.806043 -151.242188
 O   35.282115   66.676752 -151.937839
 C   36.947629   64.982609 -152.286950
 C   36.040450   64.113388 -153.145505
 O   35.694174   64.393633 -154.258738
 O   35.613798   62.958131 -152.572158
 C   37.209044   66.656125 -150.480619
 O   38.075522   66.143906 -149.820675
 O   37.095348   67.971798 -150.652848
 H   33.044026   65.425803 -150.113718
 H   34.707081   64.268109 -150.721304
 H   36.150240   64.339794 -149.657863
 H   34.459560   66.774706 -151.434393
 H   37.707761   64.383245 -151.770499
 H   37.455023   65.674297 -152.963925
 H   36.052999   62.819184 -151.721774
 H   36.341530   68.095479 -151.262994
