21 
2fw6_ligand_aiqm1.xyz
 C   34.450495   66.205070 -149.318512
 O   33.333210   65.784680 -148.692315
 O   34.887464   67.302385 -149.121534
 C   35.104494   65.202078 -150.241274
 C   36.112464   65.879752 -151.175552
 O   35.503710   66.839080 -151.996236
 C   36.839696   64.815947 -152.023706
 C   35.926854   64.108771 -152.998596
 O   34.838231   64.516364 -153.315579
 O   36.398764   62.973236 -153.534440
 C   37.194120   66.590253 -150.336848
 O   37.813538   65.989295 -149.502380
 O   37.442614   67.852412 -150.659589
 H   33.115673   64.890173 -148.968828
 H   34.348964   64.672744 -150.822215
 H   35.636163   64.475187 -149.624924
 H   34.906185   66.383275 -152.599811
 H   37.325231   64.096140 -151.362555
 H   37.617817   65.314280 -152.611956
 H   37.279562   62.785423 -153.197024
 H   36.750951   68.141955 -151.270827
