21 
2fwp_ligand_ani-2x.xyz
 C   34.676756   65.974461 -148.903473
 O   34.085500   67.056884 -149.424346
 O   34.610277   65.708865 -147.732995
 C   35.405173   65.068647 -149.898024
 C   36.147784   65.810829 -151.014975
 O   35.236119   66.635565 -151.750307
 C   36.894975   64.853246 -151.953652
 C   35.970742   64.027562 -152.832153
 O   34.804955   64.295195 -153.018350
 O   36.518229   62.968263 -153.442725
 C   37.189360   66.748698 -150.390517
 O   37.989513   66.356795 -149.581032
 O   37.148544   68.004422 -150.834820
 H   34.293682   67.103975 -150.384506
 H   34.663833   64.391309 -150.343628
 H   36.111944   64.467026 -149.325850
 H   34.745746   66.041582 -152.355584
 H   37.540297   64.207423 -151.349381
 H   37.552482   65.434757 -152.614142
 H   37.455049   62.891735 -153.210036
 H   36.384941   68.061360 -151.440704
