55 
2g1y_ligand_ani-2x.xyz
 C   27.731868  106.299714  130.321810
 N   28.623189  106.972825  131.043149
 C   28.410805  108.286286  131.156934
 N   27.412733  108.997280  130.616882
 C   26.534081  108.311146  129.878496
 C   26.616561  106.932205  129.715850
 N   27.914810  104.954730  130.212274
 N   29.301818  108.978221  131.931414
 C   25.406118  109.109323  129.276489
 C   25.785496  106.026938  127.535838
 C   24.884671  105.280941  126.790857
 C   23.838511  104.624285  127.427494
 C   23.673772  104.703594  128.816199
 C   24.589808  105.461776  129.551847
 C   25.647549  106.125744  128.927245
 O   22.935496  103.942660  126.665828
 C   22.372547  102.774641  127.264480
 C   21.850153  103.107935  128.665353
 N   22.589288  104.010997  129.388232
 C   22.089702  104.332849  130.724558
 C   21.007717  105.413135  130.701083
 C   20.503542  105.754592  132.093835
 O   19.524041  106.757962  131.981984
 C   19.000024  107.132347  133.228898
 C   23.427838  101.678321  127.374543
 C   21.213124  102.354060  126.377843
 O   20.859893  102.559441  129.121485
 C   24.146851  109.058324  130.145993
 H   28.817233  104.610985  130.503461
 H   27.458889  104.470369  129.454239
 H   30.183608  108.520979  132.107323
 H   29.310706  109.977836  131.799621
 H   25.183483  108.728460  128.272721
 H   25.756877  110.139791  129.178623
 H   26.602288  106.549928  127.041680
 H   24.975212  105.197395  125.713399
 H   24.491232  105.557659  130.629074
 H   22.933031  104.636784  131.349318
 H   21.693261  103.404306  131.144180
 H   20.169240  105.069023  130.085909
 H   21.400977  106.325871  130.236424
 H   21.336319  106.105848  132.731372
 H   20.078098  104.857709  132.580896
 H   18.516591  106.283141  133.737408
 H   19.781575  107.533826  133.893358
 H   18.253355  107.909772  133.050654
 H   23.825417  101.449582  126.381281
 H   24.256814  101.988909  128.017712
 H   22.970961  100.779520  127.798111
 H   20.494415  103.173779  126.292158
 H   21.587625  102.106409  125.380259
 H   20.711426  101.485866  126.809381
 H   23.769503  108.030886  130.230227
 H   24.361603  109.429682  131.154570
 H   23.351255  109.675314  129.715045
