35 
2gfj_ligand_ani-2x.xyz
 O   12.810892   30.893804   35.240132
 C   12.102712   29.827013   34.906546
 O   11.803163   28.981866   35.716326
 C   11.691471   29.716481   33.459279
 N   10.849703   28.723316   33.069054
 C    9.905150   27.968989   33.820320
 C    9.139481   28.536020   34.836574
 C    8.221568   27.739318   35.510418
 C    8.059011   26.399256   35.175344
 C    8.813382   25.850722   34.141208
 C    9.724376   26.639245   33.450989
 N   10.923640   28.485547   31.751997
 C   12.194636   30.274143   32.271035
 C   12.856962   31.586002   32.094491
 O   12.884805   32.111296   30.867662
 O   13.356489   32.213706   33.009992
 C   11.751596   29.378207   31.254221
 C   12.115054   29.318115   29.819072
 C   11.122460   29.020835   28.883666
 C   11.432690   28.974393   27.529453
 C   12.739681   29.194102   27.100632
 C   13.740278   29.455579   28.032666
 C   13.430619   29.512639   29.387676
 H   13.028845   31.462008   34.463192
 H    9.263188   29.575379   35.120700
 H    7.634420   28.175715   36.313450
 H    7.342108   25.784739   35.713334
 H    8.685941   24.808124   33.860459
 H   10.302305   26.246732   32.619117
 H   12.399397   31.547310   30.244195
 H   10.110903   28.837058   29.236832
 H   10.650782   28.758819   26.805455
 H   12.978028   29.154723   26.041048
 H   14.761102   29.625663   27.706107
 H   14.212565   29.716635   30.114358
