66 
2ggu_ligand_aiqm1.xyz
 C    5.905594    1.732850    0.734247
 C    5.737383    1.522402   -0.773547
 C    4.267326    1.616056   -1.112849
 C    3.527161    0.586595   -0.274289
 C    3.777392    0.830297    1.215717
 C    3.117869   -0.213838    2.098283
 O    7.257809    1.624931    1.070978
 O    6.411793    2.525737   -1.510941
 O    3.993209    1.338977   -2.482991
 O    2.133940    0.664315   -0.565855
 O    5.190983    0.757677    1.443062
 O    3.374292   -1.505243    1.589090
 C    1.669147   -0.393666   -1.374809
 C    0.655098    0.144450   -2.382875
 C   -0.590595    0.617975   -1.659582
 C   -1.135718   -0.527490   -0.824730
 C   -0.053789   -0.981950    0.157969
 C   -0.447795   -2.160490    1.010556
 O    1.143324    1.198163   -3.186869
 O   -1.615939    1.023709   -2.561967
 O   -2.283386   -0.080797   -0.115104
 O    1.098540   -1.399549   -0.580788
 O    0.618630   -2.341968    1.942109
 C   -3.510179   -0.560321   -0.629750
 C   -4.544518    0.560072   -0.607827
 C   -4.874559    0.935790    0.823563
 C   -5.342087   -0.300427    1.562015
 C   -4.277821   -1.386411    1.485187
 C   -4.738683   -2.706589    2.065540
 O   -4.144491    1.719131   -1.310585
 O   -5.919919    1.894666    0.892385
 O   -5.544480   -0.032232    2.938621
 O   -3.938854   -1.670300    0.113960
 O   -5.847136   -3.238453    1.367236
 H    5.567903    2.746296    1.001690
 H    6.114510    0.526015   -1.035798
 H    3.923072    2.627989   -0.867434
 H    3.905712   -0.405294   -0.530033
 H    3.415726    1.829714    1.501009
 H    3.546877   -0.130230    3.100887
 H    2.051762   -0.006176    2.160224
 H    7.352258    0.789911    1.534995
 H    7.325940    2.536661   -1.217178
 H    4.606214    1.854723   -3.013134
 H    2.528743   -1.928117    1.416209
 H    2.497908   -0.865890   -1.902917
 H    0.388226   -0.695369   -3.035093
 H   -0.324502    1.455948   -1.007046
 H   -1.401877   -1.357816   -1.491311
 H    0.204690   -0.144516    0.817819
 H   -0.574231   -3.048523    0.384497
 H   -1.388706   -1.943694    1.524115
 H    2.065874    1.377250   -2.966408
 H   -1.206445    1.588667   -3.222332
 H    0.403810   -3.076517    2.517430
 H   -3.374200   -0.919919   -1.651748
 H   -5.446139    0.159508   -1.085146
 H   -3.972087    1.327826    1.308291
 H   -6.265832   -0.663326    1.092963
 H   -3.386654   -1.047362    2.029962
 H   -3.894958   -3.408882    2.052662
 H   -5.061951   -2.547803    3.092706
 H   -3.270417    1.589753   -1.700133
 H   -5.672811    2.624462    0.319414
 H   -6.151806    0.709679    2.993780
 H   -5.575950   -3.349138    0.451899
