66 
2ggu_ligand_xtb.xyz
 C    5.499134    2.114934    0.909179
 C    5.410795    2.103207   -0.630648
 C    3.965655    1.816801   -1.029222
 C    3.494568    0.513774   -0.371834
 C    3.709839    0.578262    1.151718
 C    3.405293   -0.763544    1.866132
 O    6.805127    2.328994    1.325837
 O    5.792731    3.342102   -1.173319
 O    3.818840    1.680917   -2.423356
 O    2.125374    0.357999   -0.697522
 O    5.060939    0.894605    1.432784
 O    3.609280   -1.894911    1.068881
 C    1.740660   -0.795515   -1.386785
 C    0.735133   -0.378473   -2.469817
 C   -0.524676    0.163130   -1.778728
 C   -1.079589   -0.891324   -0.810186
 C    0.032350   -1.284141    0.174068
 C   -0.393395   -2.395329    1.128903
 O    1.262182    0.571077   -3.352531
 O   -1.505704    0.490745   -2.741085
 O   -2.163326   -0.359677   -0.079117
 O    1.178906   -1.751152   -0.527575
 O    0.463404   -2.354762    2.245165
 C   -3.449021   -0.576320   -0.609954
 C   -4.232461    0.744388   -0.578983
 C   -4.435963    1.149739    0.884144
 C   -5.157097    0.022813    1.629413
 C   -4.380388   -1.287411    1.462481
 C   -5.181615   -2.476925    2.005786
 O   -3.578241    1.781219   -1.262122
 O   -5.209272    2.321219    0.992996
 O   -5.238737    0.302797    3.002895
 O   -4.122201   -1.581607    0.089377
 O   -6.330738   -2.718179    1.243807
 H    4.891765    2.956572    1.289974
 H    6.061108    1.299103   -1.013976
 H    3.331833    2.644037   -0.671450
 H    4.084165   -0.319857   -0.772413
 H    3.060685    1.367237    1.562119
 H    4.106262   -0.831196    2.702734
 H    2.384391   -0.744229    2.256596
 H    7.209375    1.463113    1.464306
 H    6.568049    3.651116   -0.686943
 H    4.283226    2.421673   -2.834038
 H    2.780455   -2.100232    0.610058
 H    2.604710   -1.292104   -1.849484
 H    0.458339   -1.262201   -3.060590
 H   -0.256907    1.061026   -1.201786
 H   -1.395487   -1.776943   -1.378517
 H    0.296205   -0.398527    0.766069
 H   -0.315226   -3.354993    0.603130
 H   -1.434896   -2.223059    1.425957
 H    1.997959    1.042874   -2.922967
 H   -1.037763    0.904326   -3.481351
 H    0.277898   -3.106703    2.817371
 H   -3.382725   -0.941448   -1.643669
 H   -5.219320    0.566548   -1.038655
 H   -3.444489    1.306556    1.338099
 H   -6.165415   -0.094421    1.201065
 H   -3.435078   -1.190231    2.012203
 H   -4.533421   -3.365226    2.017097
 H   -5.509063   -2.249153    3.020848
 H   -2.868762    1.406915   -1.810849
 H   -4.886637    2.931925    0.318792
 H   -5.582234    1.202011    3.081028
 H   -6.056588   -2.744059    0.318462
