57 
2ggx_ligand_ani-2x.xyz
 C   -2.825234   -0.311132    0.568261
 C   -3.136466   -1.770491    0.885316
 C   -3.092917   -2.584035   -0.393656
 C   -4.057571   -1.985663   -1.399773
 C   -3.710794   -0.510367   -1.627823
 C   -4.727488    0.190552   -2.513629
 O   -1.500251   -0.230670    0.088901
 O   -2.175824   -2.217417    1.825089
 O   -3.450248   -3.911242   -0.065055
 O   -3.934077   -2.751851   -2.589535
 O   -3.727703    0.195833   -0.375907
 O   -6.040516    0.036822   -2.021213
 C    1.999933    1.581784    1.384714
 C    0.976995    1.259513    2.460523
 C    0.003669    0.221742    1.932233
 C   -0.677113    0.766085    0.675581
 C    0.387268    1.171708   -0.347485
 C   -0.184897    1.949284   -1.523944
 O    2.723214    0.408146    1.104590
 O    1.629968    0.788554    3.609840
 O   -0.921679   -0.029980    2.972371
 O    1.349382    2.073488    0.240687
 O    0.840448    2.332724   -2.407422
 C    6.239711    0.508502   -1.033134
 C    5.850956   -0.650226   -0.370937
 C    4.665123   -0.649582    0.340468
 C    3.882435    0.509889    0.381631
 C    4.281423    1.668200   -0.288174
 C    5.473335    1.663115   -1.001307
 N    7.498961    0.506489   -1.786670
 O    7.817803    1.535540   -2.357234
 O    8.151219   -0.523449   -1.797422
 H   -2.928198    0.302085    1.471877
 H   -4.143955   -1.841934    1.318353
 H   -2.075417   -2.544358   -0.809716
 H   -5.079707   -2.050557   -0.996465
 H   -2.710544   -0.442482   -2.080166
 H   -4.718043   -0.251044   -3.515953
 H   -4.451898    1.250551   -2.610643
 H   -2.268690   -3.177694    1.895396
 H   -3.511815   -4.385790   -0.906476
 H   -4.765192   -2.689150   -3.074686
 H   -6.042716    0.432188   -1.138468
 H    2.700577    2.349852    1.734596
 H    0.411946    2.180357    2.680191
 H    0.552250   -0.695348    1.675297
 H   -1.283199    1.645680    0.944225
 H    0.902519    0.272700   -0.711162
 H   -0.890973    1.328013   -2.085644
 H   -0.733783    2.827335   -1.142335
 H    0.930290    0.371576    4.134502
 H   -1.338964   -0.888887    2.780765
 H    1.520030    2.717714   -1.833519
 H    6.479922   -1.531832   -0.421457
 H    4.335877   -1.537545    0.871033
 H    3.680409    2.571458   -0.262227
 H    5.819809    2.544947   -1.528702
