57 
2ggx_ligand_dft.xyz
 C   -3.271180    0.673893   -0.409279
 C   -3.975175    0.989889    0.911988
 C   -3.995094   -0.248080    1.790341
 C   -4.663082   -1.384777    1.034201
 C   -3.925045   -1.614452   -0.290534
 C   -4.594236   -2.651593   -1.175848
 O   -1.934957    0.369193   -0.142544
 O   -3.311649    2.063052    1.547638
 O   -4.690765    0.097462    2.969989
 O   -4.616281   -2.525438    1.872632
 O   -3.915213   -0.399624   -1.048491
 O   -5.946012   -2.339371   -1.429876
 C    1.823680    1.740890   -1.150836
 C    0.762119    2.820471   -0.958666
 C   -0.428765    2.241601   -0.206128
 C   -0.947759    1.005423   -0.934343
 C    0.181382    0.004264   -1.169944
 C   -0.221015   -1.151789   -2.069266
 O    2.307157    1.380865    0.122536
 O    1.312255    3.921373   -0.292295
 O   -1.397252    3.262853   -0.122270
 O    1.273051    0.649246   -1.836561
 O    0.808784   -2.100734   -2.189484
 C    5.682538   -0.910949    0.641864
 C    5.060515   -0.304183    1.729643
 C    3.927645    0.457175    1.513506
 C    3.418143    0.609774    0.218740
 C    4.045954   -0.014288   -0.864167
 C    5.188312   -0.772928   -0.646720
 N    6.882697   -1.714535    0.863415
 O    7.407270   -2.235750   -0.110159
 O    7.293576   -1.818839    2.010078
 H   -3.348210    1.521858   -1.096194
 H   -5.012860    1.271236    0.681617
 H   -2.958856   -0.534563    2.023112
 H   -5.701747   -1.105125    0.815454
 H   -2.896265   -1.931901   -0.075055
 H   -4.578697   -3.623006   -0.673511
 H   -4.018267   -2.746310   -2.107292
 H   -3.620197    2.079651    2.464379
 H   -4.752559   -0.709292    3.498672
 H   -5.339179   -3.111770    1.621136
 H   -5.949473   -1.468673   -1.849321
 H    2.646524    2.108054   -1.772284
 H    0.424791    3.098221   -1.970937
 H   -0.098255    1.935808    0.796094
 H   -1.372085    1.307849   -1.902715
 H    0.523017   -0.395206   -0.206741
 H   -1.083248   -1.660877   -1.633096
 H   -0.522762   -0.747693   -3.049092
 H    0.553657    4.454589   -0.013692
 H   -2.030768    3.014404    0.575492
 H    1.591561   -1.620554   -2.488550
 H    5.473904   -0.431511    2.722390
 H    3.421071    0.954628    2.332868
 H    3.643076    0.070740   -1.865033
 H    5.693589   -1.265134   -1.468471
