66 
2gh9_ligand_aiqm1.xyz
 C   -5.628759    2.075632    1.675907
 C   -5.673192    0.592227    2.050762
 C   -4.271579    0.026673    2.110873
 C   -3.569530    0.289875    0.782633
 C   -3.568453    1.793673    0.497592
 C   -3.017806    2.173301   -0.862880
 O   -5.018579    2.821105    2.705272
 O   -6.302863    0.507776    3.316976
 O   -4.390629   -1.350932    2.419201
 O   -2.216417   -0.166695    0.870428
 O   -4.925922    2.262504    0.487906
 O   -3.066972    3.573074   -1.043201
 C   -1.970804   -1.407986    0.264636
 C   -1.071210   -2.250713    1.161594
 C    0.289878   -1.613411    1.312573
 C    0.880352   -1.405629   -0.077828
 C   -0.077079   -0.585175   -0.947244
 C    0.361691   -0.479222   -2.393987
 O   -1.715340   -2.407868    2.412749
 O    1.055611   -2.492261    2.115942
 O    2.115439   -0.696826    0.046819
 O   -1.360032   -1.227849   -0.992476
 O   -0.563678    0.281183   -3.143644
 C    3.267077   -1.448388   -0.233734
 C    4.323563   -1.190783    0.834095
 C    4.793158    0.241938    0.779416
 C    5.316545    0.537969   -0.614093
 C    4.217682    0.235564   -1.639202
 C    4.695139    0.319331   -3.076261
 O    3.760995   -1.513434    2.094881
 O    5.789547    0.381741    1.781126
 O    5.711976    1.896282   -0.609117
 O    3.767584   -1.119387   -1.506497
 O    5.115384    1.659804   -3.319606
 H   -6.642826    2.444540    1.490023
 H   -6.252292    0.047737    1.296506
 H   -3.715127    0.546343    2.896986
 H   -4.095314   -0.249454   -0.017734
 H   -2.999451    2.305672    1.280928
 H   -1.972746    1.877841   -0.951272
 H   -3.596517    1.654770   -1.642438
 H   -5.383676    2.473751    3.525597
 H   -6.167879   -0.388605    3.632899
 H   -3.513048   -1.705894    2.602295
 H   -3.958735    3.851585   -0.820215
 H   -2.899267   -1.941825    0.063914
 H   -0.951781   -3.227290    0.678686
 H    0.186523   -0.639550    1.798430
 H    1.055185   -2.387802   -0.539256
 H   -0.180648    0.420072   -0.521322
 H    0.472423   -1.489729   -2.813722
 H    1.321533    0.032677   -2.456415
 H   -1.066612   -2.772639    3.019757
 H    1.924048   -2.102906    2.269381
 H   -1.424731   -0.124783   -3.013089
 H    3.038506   -2.512395   -0.282757
 H    5.171552   -1.852490    0.625227
 H    3.953471    0.912123    0.987366
 H    6.179779   -0.116147   -0.819275
 H    3.385401    0.934026   -1.487855
 H    5.525835   -0.377743   -3.224654
 H    3.871489    0.040069   -3.734382
 H    4.350181   -1.156806    2.765037
 H    6.158388    1.263193    1.696006
 H    5.775762    2.193462   -1.522549
 H    5.397801    1.734704   -4.230612
