66 
2gh9_ligand_ani-2x.xyz
 C   -5.497058    1.967535    2.081677
 C   -5.609972    0.442637    2.103179
 C   -4.232006   -0.178374    1.969437
 C   -3.536215    0.355868    0.717475
 C   -3.498943    1.882030    0.804223
 C   -2.932030    2.554872   -0.436978
 O   -4.810159    2.411636    3.225958
 O   -6.169745    0.086212    3.353465
 O   -4.409882   -1.579148    1.950417
 O   -2.201169   -0.124492    0.662984
 O   -4.831054    2.391231    0.927280
 O   -2.886349    3.951369   -0.274760
 C   -2.011483   -1.373613    0.035836
 C   -1.120514   -2.228231    0.925993
 C    0.242783   -1.575407    1.064789
 C    0.841996   -1.369390   -0.327765
 C   -0.141857   -0.566852   -1.183625
 C    0.278772   -0.438756   -2.640039
 O   -1.748275   -2.351367    2.188057
 O    1.029370   -2.431130    1.869317
 O    2.051560   -0.634159   -0.229506
 O   -1.422244   -1.218696   -1.222899
 O   -0.649766    0.335355   -3.363138
 C    3.229501   -1.388316   -0.047677
 C    4.037517   -0.753708    1.078821
 C    4.454405    0.645432    0.670630
 C    5.224542    0.589323   -0.637711
 C    4.381652   -0.140858   -1.698197
 C    5.152922   -0.413542   -2.978814
 O    3.215973   -0.741089    2.233000
 O    5.245228    1.176348    1.713752
 O    5.498688    1.924625   -0.996814
 O    3.979799   -1.430312   -1.227789
 O    5.587842    0.834316   -3.513667
 H   -6.497933    2.425079    2.039262
 H   -6.249400    0.099244    1.276884
 H   -3.631155    0.116434    2.843493
 H   -4.089450    0.046259   -0.182423
 H   -2.906961    2.180788    1.680188
 H   -1.903666    2.219252   -0.608603
 H   -3.534492    2.268763   -1.316090
 H   -5.162726    1.868135    3.952318
 H   -5.991797   -0.860877    3.457060
 H   -3.553847   -1.980293    2.185603
 H   -3.782212    4.218287   -0.024445
 H   -2.983506   -1.860547   -0.114302
 H   -0.993650   -3.220492    0.472753
 H    0.127699   -0.594235    1.545203
 H    1.029300   -2.346962   -0.798741
 H   -0.259349    0.436726   -0.751732
 H    0.391345   -1.444707   -3.077468
 H    1.246887    0.068717   -2.709473
 H   -1.081914   -2.705585    2.794768
 H    1.774353   -1.900948    2.205539
 H   -1.509985   -0.076503   -3.198125
 H    2.970790   -2.423911    0.206230
 H    4.937631   -1.355485    1.265336
 H    3.551659    1.254683    0.515578
 H    6.160973    0.023984   -0.471853
 H    3.498725    0.477944   -1.923233
 H    6.007694   -1.058574   -2.733503
 H    4.506141   -0.943160   -3.689115
 H    3.652597   -0.181641    2.890487
 H    5.545865    2.044858    1.410419
 H    5.725267    1.920586   -1.942618
 H    6.261290    0.672435   -4.183206
