66 
2gh9_ligand_xtb.xyz
 C   -5.251237    2.355169    1.634431
 C   -5.434564    0.918210    2.154987
 C   -4.085528    0.191040    2.135895
 C   -3.472647    0.275765    0.727015
 C   -3.393025    1.748105    0.297386
 C   -2.940819    1.908746   -1.157159
 O   -4.477057    3.095940    2.530742
 O   -5.938833    0.997615    3.464588
 O   -4.322602   -1.129887    2.552606
 O   -2.166312   -0.278519    0.750821
 O   -4.678577    2.357961    0.367829
 O   -2.802488    3.255880   -1.503905
 C   -1.992849   -1.554153    0.207911
 C   -1.159971   -2.407702    1.179855
 C    0.222654   -1.773511    1.323110
 C    0.870782   -1.672602   -0.064245
 C   -0.062254   -0.929638   -1.033497
 C    0.446099   -1.000704   -2.477529
 O   -1.819248   -2.488316    2.416612
 O    0.978102   -2.567105    2.201602
 O    2.084299   -0.963643    0.103980
 O   -1.367543   -1.503367   -1.044466
 O   -0.223356   -0.106976   -3.320229
 C    3.266079   -1.525315   -0.381233
 C    4.336298   -1.387961    0.715829
 C    4.625801    0.095737    0.930447
 C    5.042581    0.734549   -0.400881
 C    3.942883    0.476634   -1.442163
 C    4.332787    0.961623   -2.841114
 O    3.852100   -1.997884    1.885737
 O    5.635670    0.211622    1.903624
 O    5.253312    2.101237   -0.155770
 O    3.685033   -0.917179   -1.570718
 O    4.531110    2.359496   -2.807212
 H   -6.238389    2.826515    1.498383
 H   -6.134372    0.379825    1.499218
 H   -3.395962    0.694598    2.832125
 H   -4.111183   -0.273659    0.022294
 H   -2.697924    2.276624    0.962600
 H   -1.965244    1.442823   -1.299868
 H   -3.679947    1.413686   -1.805225
 H   -4.783088    2.861264    3.417574
 H   -5.875767    0.109203    3.839325
 H   -3.478855   -1.613790    2.557936
 H   -3.598112    3.711506   -1.200772
 H   -2.958189   -2.044075    0.024014
 H   -1.045826   -3.414348    0.747656
 H    0.106688   -0.754694    1.724096
 H    1.065194   -2.686143   -0.442106
 H   -0.121653    0.118532   -0.709567
 H    0.326788   -2.035719   -2.829264
 H    1.502932   -0.731911   -2.510092
 H   -1.153185   -2.755901    3.065132
 H    1.914865   -2.313667    2.123731
 H   -1.169714   -0.276920   -3.241622
 H    3.128313   -2.585291   -0.633805
 H    5.257709   -1.886629    0.378799
 H    3.705319    0.589772    1.278614
 H    5.978551    0.258907   -0.744105
 H    3.031771    1.000007   -1.118993
 H    5.250388    0.445151   -3.153948
 H    3.525938    0.690085   -3.530236
 H    4.404636   -1.678063    2.611981
 H    5.952716    1.122734    1.867451
 H    5.154935    2.575111   -0.994596
 H    4.583982    2.693204   -3.708516
