32 
2gl0_ligand_xtb.xyz
 O   -2.049515    1.208716    1.162349
 C   -3.030233    1.408622    0.167658
 C   -2.832165    0.393867   -0.963513
 O   -1.640373    0.671240   -1.691932
 C   -2.704897   -1.051314   -0.461313
 O   -3.204082   -1.942879   -1.416282
 C   -1.187134   -1.201648   -0.283790
 O   -0.780195   -2.520641   -0.478189
 C   -0.631869   -0.229302   -1.354761
 N    0.537516    0.448599   -0.845522
 C    0.837956    1.779326   -0.813258
 N    1.988053    2.046525   -0.273112
 C    2.503102    0.825739    0.085050
 C    3.694825    0.404012    0.700981
 N    4.651902    1.255776    1.100983
 N    3.874855   -0.905511    0.904446
 C    2.936554   -1.755146    0.529093
 N    1.779659   -1.495050   -0.055714
 C    1.595496   -0.186245   -0.267370
 H   -2.130763    1.903166    1.824960
 H   -4.038382    1.278870    0.584239
 H   -2.947243    2.414803   -0.262203
 H   -3.665255    0.477425   -1.667962
 H   -3.230103   -1.184744    0.493834
 H   -2.627279   -2.721061   -1.397844
 H   -0.902488   -0.830749    0.709369
 H    0.190457   -2.533128   -0.347176
 H   -0.332808   -0.797827   -2.253169
 H    0.164470    2.511359   -1.210305
 H    5.495580    0.889689    1.503424
 H    4.542951    2.236436    0.918414
 H    3.141407   -2.798925    0.726314
