46 
2gmx_ligand_xtb.xyz
 C    0.537647  149.094769   52.194028
 C    1.824318  148.931372   52.688419
 C    2.193115  149.576364   53.876483
 C    1.261741  150.345545   54.556893
 C   -0.035005  150.508483   54.082833
 C   -0.368592  149.873443   52.887782
 C    3.578338  149.414829   54.438026
 C    3.604398  148.194890   55.358769
 N    3.556296  147.030486   54.656954
 C    3.515177  145.727091   55.126958
 O    3.641072  148.282714   56.563785
 N    3.385791  144.834837   54.137187
 C    3.342223  143.553479   54.443999
 C    3.424640  143.082512   55.769513
 C    3.556715  144.029299   56.807004
 C    3.601915  145.384365   56.461242
 O   -1.011362  151.236168   54.675565
 C   -0.728712  151.883482   55.892025
 O    2.785110  148.162695   52.081243
 C    2.468546  147.525839   50.864402
 N    3.636811  143.634708   58.096102
 C    3.377585  141.709851   56.054854
 O    3.228592  142.640457   53.473763
 C    3.123756  143.113962   52.138785
 C    1.729047  143.640635   51.825880
Br   -2.125708  150.096552   52.213520
 N    3.343320  140.597477   56.340938
 H    0.220005  148.625226   51.277800
 H    1.567351  150.818755   55.476046
 H    4.296569  149.278603   53.629636
 H    3.848949  150.288063   55.030858
 H    3.486517  147.094507   53.645881
 H    3.700676  146.144168   57.216123
 H    0.061385  152.631418   55.772370
 H   -1.654120  152.378874   56.180235
 H   -0.441630  151.168030   56.668652
 H    2.214465  148.252123   50.087279
 H    3.369029  146.987023   50.573984
 H    1.646590  146.814788   50.987259
 H    3.610522  142.657667   58.327639
 H    3.738086  144.316228   58.825054
 H    3.355422  142.243313   51.521027
 H    3.870949  143.897159   51.973343
 H    0.986869  142.872207   52.027292
 H    1.515231  144.507126   52.446320
 H    1.671363  143.923418   50.778249
