71 
2go4_ligand_dft.xyz
 C    3.333639    0.093613    0.161822
 C    2.760991    1.496430    0.357924
 C    3.610012    2.486745   -0.452319
 C    4.816958    0.058676    0.519847
 C    5.534405    1.133549   -0.307756
 O    4.971530    2.403892   -0.059429
 O    2.651585   -0.861452    0.997063
 O    1.066289   -1.142696   -0.580553
 C    1.511555   -1.395053    0.518905
 C    0.857960   -2.296791    1.532688
 C    0.393275   -1.500176    2.769698
 C   -0.393507   -0.228243    2.435786
 C   -1.627921   -0.449554    1.560355
 C   -2.376074    0.857047    1.284915
 C   -3.485786    0.730510    0.237788
 C   -4.604634   -0.241914    0.614906
 C   -5.733637   -0.279639   -0.414728
 C   -6.842212   -1.268605   -0.052652
 C   -7.926424   -1.417966   -1.126170
 C   -8.650262   -0.121919   -1.509692
 C   -9.331899    0.587449   -0.338330
 C  -10.142530    1.805107   -0.779285
 C    5.432127   -1.341094    0.354510
 C    5.135800   -1.954203   -0.994302
 O    5.499329   -1.484835   -2.069701
 N    4.434811   -3.116398   -0.967686
 O    3.987389   -3.595242   -2.189235
 O    1.398932    1.602934    0.007960
 C    3.199482    3.933894   -0.234011
 O    4.005541    4.803975   -0.990003
 H    3.195170   -0.206780   -0.884660
 H    2.843665    1.756727    1.421689
 H    3.517927    2.247783   -1.525399
 H    4.918879    0.339207    1.575400
 H    5.488492    0.886676   -1.377279
 H    6.585874    1.195122   -0.015063
 H    0.017406   -2.783925    1.035068
 H    1.568961   -3.069828    1.845339
 H    1.272426   -1.232108    3.365598
 H   -0.218126   -2.171098    3.384930
 H    0.267155    0.490015    1.932452
 H   -0.697021    0.245537    3.378313
 H   -2.294217   -1.178022    2.042457
 H   -1.327412   -0.885833    0.598535
 H   -1.649518    1.605459    0.942343
 H   -2.799114    1.241553    2.223987
 H   -3.042965    0.414865   -0.717577
 H   -3.922359    1.722571    0.060473
 H   -5.015390    0.036894    1.596410
 H   -4.194229   -1.254091    0.730407
 H   -5.318740   -0.542533   -1.398665
 H   -6.154173    0.729729   -0.521045
 H   -7.298224   -0.967553    0.900107
 H   -6.393186   -2.254704    0.127453
 H   -7.473551   -1.848235   -2.029511
 H   -8.668692   -2.148266   -0.776590
 H   -9.406153   -0.357185   -2.271012
 H   -7.946609    0.571848   -1.989540
 H   -8.577298    0.903054    0.393408
 H   -9.987039   -0.123157    0.184073
 H  -10.931303    1.517522   -1.483964
 H   -9.502659    2.540223   -1.281164
 H  -10.617699    2.300931    0.073527
 H    5.074866   -1.995397    1.155409
 H    6.520945   -1.272494    0.454086
 H    3.770886   -3.314957   -0.233044
 H    4.359107   -2.930671   -2.806479
 H    1.172996    0.883138   -0.600519
 H    3.260756    4.156949    0.843989
 H    2.165349    4.073193   -0.553863
 H    4.918456    4.552838   -0.794477
