71 
2go4_ligand_ani-2x.xyz
 C   -4.078308    0.046564    0.193745
 C   -3.318801   -1.153794   -0.406023
 C   -4.110716   -1.748318   -1.569608
 C   -5.530345   -0.320504    0.479164
 C   -6.161565   -0.950330   -0.762129
 O   -5.424209   -2.091939   -1.158744
 O   -3.486498    0.394785    1.470452
 O   -1.911486    1.619858    0.423712
 C   -2.372618    1.144397    1.447045
 C   -1.727210    1.257046    2.801203
 C   -1.201180   -0.105270    3.297783
 C   -0.428617   -0.911271    2.246000
 C    0.740150   -0.178233    1.585876
 C    1.335295   -0.989844    0.432938
 C    2.450740   -0.270211   -0.329740
 C    3.684943    0.049588    0.513872
 C    4.807060    0.692088   -0.298454
 C    6.039478    1.027669    0.540357
 C    7.149350    1.745664   -0.236517
 C    7.655999    1.003357   -1.477987
 C    8.164620   -0.411068   -1.197540
 C    8.760415   -1.082298   -2.432165
 C   -6.333455    0.861932    1.033075
 C   -6.599654    1.983628    0.044811
 O   -6.092521    2.121964   -1.065594
 N   -7.541259    2.880957    0.454969
 O   -7.650381    4.033519   -0.316019
 O   -2.022216   -0.824768   -0.867311
 C   -3.503243   -3.027866   -2.130084
 O   -4.284463   -3.519699   -3.193643
 H   -4.015854    0.905947   -0.480848
 H   -3.240895   -1.918682    0.382463
 H   -4.168075   -1.001663   -2.381120
 H   -5.501244   -1.090482    1.260851
 H   -6.203982   -0.216634   -1.579604
 H   -7.180898   -1.291387   -0.549197
 H   -0.914244    1.981637    2.703292
 H   -2.450337    1.661148    3.518928
 H   -2.053995   -0.703109    3.635864
 H   -0.572333    0.070818    4.179110
 H   -1.123604   -1.236294    1.458078
 H   -0.055699   -1.831015    2.716406
 H    1.506675    0.050410    2.339895
 H    0.398775    0.785600    1.183930
 H    0.522655   -1.232536   -0.267843
 H    1.715571   -1.948662    0.817359
 H    2.054177    0.664395   -0.755098
 H    2.753712   -0.890878   -1.184138
 H    4.055396   -0.875581    0.980559
 H    3.410769    0.720672    1.339709
 H    4.433413    1.610376   -0.775954
 H    5.087762    0.016299   -1.118787
 H    6.436973    0.105673    0.988373
 H    5.735480    1.662613    1.383840
 H    6.786724    2.737133   -0.542577
 H    7.994501    1.925013    0.443003
 H    8.467742    1.589152   -1.931078
 H    6.860634    0.960592   -2.235743
 H    7.344010   -1.028512   -0.809889
 H    8.917723   -0.367879   -0.398473
 H    9.600728   -0.501181   -2.830100
 H    8.013487   -1.172933   -3.229898
 H    9.127161   -2.088250   -2.202799
 H   -5.795011    1.281159    1.892563
 H   -7.305628    0.512431    1.403373
 H   -7.624826    3.112830    1.435635
 H   -7.065776    3.817538   -1.072030
 H   -1.857992    0.117033   -0.680641
 H   -3.412550   -3.770490   -1.318985
 H   -2.502417   -2.827449   -2.520514
 H   -5.188014   -3.572856   -2.850763
