71 
2go4_ligand_xtb.xyz
 C   -4.476912   -0.236590    0.209066
 C   -3.974830   -1.569653   -0.369939
 C   -4.915913   -1.968031   -1.525032
 C   -5.933609   -0.374500    0.652927
 C   -6.746720   -0.845320   -0.560620
 O   -6.251839   -2.060403   -1.069616
 O   -3.673526    0.162265    1.320597
 O   -2.304360    1.283977   -0.058107
 C   -2.582361    0.892025    1.045386
 C   -1.781507    1.167753    2.291448
 C   -1.208657   -0.131702    2.874808
 C   -0.431157   -0.966689    1.856453
 C    0.745667   -0.223794    1.227610
 C    1.562470   -1.152350    0.331357
 C    2.656708   -0.428877   -0.453431
 C    3.774766    0.121844    0.429411
 C    4.901655    0.735025   -0.398962
 C    6.022335    1.280023    0.483454
 C    7.100184    2.035860   -0.295549
 C    7.853850    1.202630   -1.333362
 C    8.627206    0.031289   -0.732064
 C    9.478052   -0.674906   -1.780883
 C   -6.472099    0.938698    1.240560
 C   -6.185496    2.114903    0.332131
 O   -6.570813    2.223472   -0.820627
 N   -5.450162    3.089290    0.889247
 O   -5.130174    4.210093    0.121146
 O   -2.634365   -1.513531   -0.766308
 C   -4.544362   -3.337630   -2.102103
 O   -5.304887   -3.644152   -3.236274
 H   -4.387989    0.535465   -0.569972
 H   -4.018410   -2.341537    0.407797
 H   -4.846917   -1.207521   -2.322180
 H   -5.981597   -1.147078    1.427137
 H   -6.735694   -0.066650   -1.334872
 H   -7.779940   -1.047805   -0.272185
 H   -0.982242    1.861241    2.033659
 H   -2.432320    1.633531    3.033868
 H   -2.032988   -0.732292    3.264268
 H   -0.555583    0.129609    3.710544
 H   -1.103886   -1.300575    1.064144
 H   -0.056270   -1.858707    2.364792
 H    1.379121    0.183505    2.018313
 H    0.374639    0.604954    0.622974
 H    0.881755   -1.631086   -0.376603
 H    2.014767   -1.940108    0.938964
 H    2.209480    0.389313   -1.022443
 H    3.091355   -1.129359   -1.171071
 H    4.178797   -0.685955    1.044892
 H    3.373834    0.882888    1.101154
 H    4.498463    1.545002   -1.011675
 H    5.298723   -0.025943   -1.072808
 H    6.476547    0.459426    1.041551
 H    5.588885    1.967484    1.214997
 H    6.632815    2.882140   -0.805746
 H    7.822314    2.441026    0.418339
 H    8.560566    1.859904   -1.847174
 H    7.155987    0.828542   -2.084349
 H    7.930465   -0.687608   -0.298236
 H    9.271277    0.398813    0.070481
 H   10.204046    0.012071   -2.210864
 H    8.852227   -1.056293   -2.585120
 H   10.016512   -1.510740   -1.339721
 H   -6.025592    1.105489    2.220554
 H   -7.554551    0.854737    1.354033
 H   -5.023405    3.107044    1.798957
 H   -5.544266    4.011915   -0.744703
 H   -2.480978   -0.715341   -1.291710
 H   -4.687486   -4.093087   -1.317101
 H   -3.497395   -3.333886   -2.409129
 H   -6.234213   -3.543951   -2.995879
