28 
2gtv_ligand_ani-2x.xyz
 C   -0.428032    1.009472    0.179690
 C   -0.285432    0.186962    1.431303
 C   -0.472677   -1.135310    1.444967
 C   -0.789160   -1.932254    0.205112
 O   -2.121700   -2.438909    0.256465
 C   -0.744092   -1.081228   -1.073676
 C   -1.361818    0.280247   -0.795915
 O    0.555558   -0.964580   -1.653471
 C    1.504042   -0.125009   -1.032151
 C    0.927172    1.209177   -0.543911
 C   -0.949123    2.394255    0.562238
 O   -0.902096    2.879305    1.666039
 O   -1.431374    3.080067   -0.496554
 C    2.313530   -0.891432    0.023964
 O    3.097873   -0.062102    0.738376
 O    2.334662   -2.085821    0.175342
 H    0.000142    0.727465    2.330201
 H   -0.395875   -1.691529    2.377129
 H   -0.063236   -2.748169    0.106857
 H   -2.201679   -2.953732    1.069043
 H   -1.321659   -1.614464   -1.831747
 H   -2.352555    0.137306   -0.351048
 H   -1.470464    0.851188   -1.721994
 H    2.234987    0.085584   -1.821662
 H    0.752876    1.851727   -1.414223
 H    1.648189    1.709246    0.105818
 H   -1.683573    3.951848   -0.149172
 H    3.605715   -0.628911    1.342280
