28 
2gtv_ligand_xtb.xyz
 C   -0.411996    1.018159    0.176689
 C   -0.188855    0.177936    1.400715
 C   -0.332365   -1.137228    1.389533
 C   -0.740760   -1.923871    0.172742
 O   -2.053740   -2.441441    0.322354
 C   -0.754800   -1.056399   -1.098888
 C   -1.374796    0.301015   -0.775609
 O    0.513267   -0.927718   -1.716254
 C    1.462529   -0.136731   -1.044572
 C    0.915832    1.219749   -0.583253
 C   -0.940026    2.390025    0.568788
 O   -1.011311    2.819411    1.687417
 O   -1.311075    3.106865   -0.498290
 C    2.180273   -0.902872    0.068970
 O    2.877550   -0.088187    0.872247
 O    2.220420   -2.097130    0.177556
 H    0.099505    0.711425    2.294452
 H   -0.177761   -1.718065    2.289468
 H   -0.028275   -2.749496    0.020090
 H   -2.086067   -2.961688    1.132718
 H   -1.358847   -1.583950   -1.843625
 H   -2.341598    0.137616   -0.299913
 H   -1.512213    0.884209   -1.685930
 H    2.246328    0.040185   -1.797064
 H    0.723917    1.842436   -1.458525
 H    1.654536    1.709518    0.050838
 H   -1.639091    3.976820   -0.220103
 H    3.369619   -0.610191    1.526750
