19 
2gyi_ligand_ani-2x.xyz
 C    1.199790   -0.502392    0.618297
 C   -0.026718   -1.053169   -0.096411
 C   -1.309000   -0.581156    0.607760
 C   -1.304433    0.928536    0.836530
 N    2.061037    0.159785   -0.171498
 O    1.387211   -0.611407    1.828901
 O   -0.047999   -0.700017   -1.462903
 O   -2.424125   -1.003767   -0.141456
 O   -0.891842    1.597820   -0.358809
 O    3.260572    0.552005    0.390674
 H    0.008203   -2.147521   -0.052648
 H   -1.372137   -1.062195    1.588238
 H   -2.317864    1.247396    1.109370
 H   -0.617716    1.159902    1.659505
 H    2.096771    0.007172   -1.169550
 H   -0.262241    0.252932   -1.474782
 H   -2.157573   -0.934637   -1.071483
 H   -0.410945    2.401076   -0.128079
 H    3.129009    0.289637    1.326642
