65 
2h5i_ligand_xtb.xyz
 C   -0.275354    3.187361    1.035545
 O   -0.135066    3.789541   -0.021317
 C   -1.383434    3.484183    1.999618
 N    0.576245    2.208866    1.398936
 C    1.611976    1.731894    0.516891
 C    1.571248    0.198747    0.531172
 O    1.443070   -0.409219    1.583273
 C    2.993708    2.245324    0.979830
 C    4.084176    1.582282    0.178992
 O    5.046369    1.042037    0.674612
 O    3.857366    1.604901   -1.121539
 N    1.698176   -0.378059   -0.672716
 C    1.442587   -1.784425   -0.981841
 C   -0.061469   -2.031426   -0.753628
 O   -0.843499   -2.086400   -1.682140
 C    2.324195   -2.776582   -0.213913
 C    3.695659   -2.985733   -0.875969
 C    4.501395   -1.717548   -0.751282
 O    4.592992   -0.882858   -1.624743
 O    5.058533   -1.600895    0.435461
 N   -0.422128   -2.170531    0.535135
 C   -1.837655   -2.083269    0.845268
 C   -2.353359   -0.778448    0.214859
 O   -1.709036    0.252314    0.275069
 C   -2.085170   -2.150539    2.360839
 C   -1.554124   -0.920443    3.093695
 C   -3.578059   -2.327670    2.632478
 N   -3.545484   -0.889280   -0.389385
 C   -4.150609    0.145766   -1.194330
 C   -5.309520   -0.452277   -1.943630
 O   -5.681569   -1.585158   -1.813944
 C   -3.140770    0.813735   -2.138725
 C   -2.484475    1.984444   -1.412994
 O   -3.069553    2.640077   -0.587692
 O   -1.271527    2.236598   -1.854000
 H   -1.458789    4.558462    2.147543
 H   -1.252038    2.979130    2.951044
 H   -2.307477    3.152991    1.525042
 H    0.388409    1.632311    2.206070
 H    1.402726    2.119039   -0.485124
 H    3.029732    3.325699    0.832446
 H    3.149879    2.019161    2.035418
 H    4.445758    0.967198   -1.589446
 H    1.760520    0.234494   -1.471855
 H    1.619151   -1.899050   -2.055167
 H    1.806874   -3.737022   -0.187881
 H    2.468360   -2.435434    0.811109
 H    3.575222   -3.242435   -1.928199
 H    4.221924   -3.785204   -0.355354
 H    5.428664   -0.698652    0.581754
 H    0.228345   -1.847206    1.243924
 H   -2.332601   -2.931978    0.357851
 H   -1.553329   -3.035892    2.728747
 H   -0.491553   -0.780010    2.913185
 H   -1.704970   -1.038151    4.164431
 H   -2.079195   -0.026933    2.764952
 H   -3.752008   -2.431574    3.700579
 H   -3.962798   -3.216198    2.136982
 H   -4.135317   -1.463460    2.278341
 H   -3.976499   -1.798414   -0.508392
 H   -4.544043    0.951518   -0.547366
 H   -5.805140    0.252170   -2.633265
 H   -3.649462    1.214927   -3.017773
 H   -2.379955    0.102884   -2.460384
 H   -0.854673    2.968772   -1.325219
