75 
2h65_ligand_ani-2x.xyz
 C   -7.294079   -1.142640   -0.904433
 O   -7.559988   -0.324968   -1.772746
 C   -8.069899   -2.427868   -0.704995
 N   -6.270514   -0.956199   -0.019933
 C   -5.337567    0.136781   -0.149164
 C   -3.936849   -0.413801    0.138298
 O   -3.771037   -1.423344    0.814618
 C   -5.651055    1.324848    0.798045
 C   -6.947467    2.021348    0.383916
 C   -5.705095    0.898218    2.265697
 N   -2.899398    0.287990   -0.375559
 C   -1.526428   -0.032336   -0.058198
 C   -0.689501    1.205784   -0.430824
 O   -1.191571    2.152533   -1.023916
 C   -1.055479   -1.310306   -0.794114
 C    0.165116   -1.896806   -0.133929
 O    1.242192   -1.931025   -0.901697
 O    0.135753   -2.277105    1.029223
 N    0.631324    1.174695   -0.113036
 C    1.477009    2.329157   -0.386184
 C    2.907044    1.824887   -0.657845
 O    3.898570    2.212590   -0.040813
 C    1.367226    3.426663    0.690322
 C    2.127003    4.685940    0.272944
 C    1.780513    2.964420    2.087543
 N    2.981068    0.909642   -1.656181
 C    4.210190    0.385556   -2.255047
 C    4.873715   -0.716203   -1.421108
 O    5.327443   -1.711581   -1.972338
 C    5.222641    1.468473   -2.635969
 N    4.931381   -0.537934   -0.080275
 C    5.248946   -1.644589    0.797544
 C    4.764115   -2.937977    0.139890
 O    3.581919   -3.158041   -0.023218
 C    4.568696   -1.439744    2.168198
 C    3.063043   -1.331700    2.035088
 O    2.400595   -2.342424    2.565951
 O    2.515950   -0.392459    1.480422
 H   -7.416428   -3.300022   -0.819978
 H   -8.865961   -2.477522   -1.448281
 H   -8.508493   -2.465410    0.298219
 H   -5.949671   -1.725569    0.555439
 H   -5.397860    0.502286   -1.180886
 H   -4.822788    2.040358    0.673290
 H   -7.809993    1.361278    0.529617
 H   -6.929913    2.309165   -0.672891
 H   -7.107033    2.923171    0.984224
 H   -6.560469    0.235874    2.440441
 H   -4.799360    0.365039    2.572665
 H   -5.822031    1.775277    2.911127
 H   -3.037147    1.159885   -0.871535
 H   -1.432113   -0.234819    1.016469
 H   -0.894114   -1.130342   -1.860077
 H   -1.858167   -2.039917   -0.661816
 H    1.999479   -2.319570   -0.404219
 H    1.006636    0.486788    0.531555
 H    1.094058    2.756357   -1.323926
 H    0.295991    3.670228    0.715509
 H    1.813508    5.021053   -0.722506
 H    1.926072    5.498493    0.979961
 H    3.204310    4.500408    0.252131
 H    1.566515    3.754765    2.816140
 H    1.227234    2.070152    2.395917
 H    2.852010    2.744421    2.125281
 H    2.122766    0.411592   -1.857988
 H    3.894426   -0.130668   -3.167465
 H    4.742809    2.211553   -3.278933
 H    5.617542    1.976779   -1.754673
 H    6.049939    1.009863   -3.187424
 H    4.606777    0.337339    0.315633
 H    6.335651   -1.714041    0.947032
 H    5.523261   -3.646476   -0.228788
 H    4.937486   -0.503439    2.598420
 H    4.811031   -2.256395    2.853464
 H    1.477606   -2.302432    2.212353
