18 
2hdr_ligand_aiqm1.xyz
 C   19.928583   -8.770997    4.243833
 C   18.083448   -7.275718    4.706521
 C   17.572554   -5.878603    4.664831
 O   17.241122  -10.764764    5.637984
 C   19.200929   -9.865229    4.717009
 C   19.376521   -7.496337    4.239397
 C   17.346156   -8.372762    5.183919
 C   17.893137   -9.639955    5.188985
 O   16.315529   -5.644647    5.117529
 O   18.224522   -4.957764    4.249475
 N   19.692813  -11.137519    4.744520
 H   20.936085   -8.928523    3.877396
 H   16.362202  -10.524869    5.938314
 H   19.939061   -6.649821    3.873404
 H   16.331970   -8.251192    5.558850
 H   15.907416   -6.459117    5.419298
 H   20.617171  -11.334111    4.417429
 H   19.122782  -11.880572    5.095406
