18 
2hdr_ligand_xtb.xyz
 C   19.926297   -8.770872    4.244747
 C   18.081146   -7.285347    4.708749
 C   17.581676   -5.893407    4.663384
 O   17.206577  -10.742420    5.646925
 C   19.202227   -9.865412    4.716490
 C   19.375890   -7.509117    4.241748
 C   17.345524   -8.379018    5.184815
 C   17.891031   -9.642808    5.189941
 O   16.328758   -5.661877    5.116179
 O   18.238283   -4.974583    4.246443
 N   19.710222  -11.123903    4.735360
 H   20.929957   -8.929356    3.880195
 H   16.328848  -10.478100    5.943620
 H   19.935526   -6.662418    3.876976
 H   16.333097   -8.270256    5.560998
 H   15.896626   -6.466152    5.425994
 H   20.638080  -11.305784    4.404922
 H   19.142237  -11.871670    5.086613
