50 
2hmb_ligand_xtb.xyz
 C   22.227571   33.464627   51.501743
 O   23.297969   33.682317   51.019069
 O   21.269958   32.828507   50.793178
 C   21.812988   33.852458   52.907993
 C   22.935728   34.566031   53.656382
 C   22.516789   34.960684   55.069829
 C   23.649056   35.666431   55.812887
 C   23.239819   36.182946   57.192576
 C   22.948033   35.070713   58.197703
 C   22.643121   35.628074   59.586418
 C   22.356372   34.516481   60.595412
 C   21.938409   35.040384   61.976936
 C   20.427868   35.015607   62.219368
 C   19.638743   35.936137   61.292283
 C   18.146818   35.928765   61.624019
 C   17.310028   36.796679   60.673819
 C   16.641607   36.022388   59.535762
 C   17.620336   35.384499   58.557330
 H   20.451398   32.712727   51.292661
 H   21.520689   32.944318   53.445108
 H   20.933589   34.501352   52.842465
 H   23.226834   35.453883   53.092930
 H   23.806151   33.909498   53.697726
 H   22.219006   34.064787   55.617823
 H   21.650765   35.625854   55.020490
 H   23.987182   36.511830   55.209078
 H   24.492414   34.980851   55.919484
 H   22.357552   36.819932   57.092330
 H   24.049104   36.803278   57.585228
 H   23.810691   34.402786   58.256920
 H   22.093625   34.481369   57.859386
 H   21.788012   36.301923   59.519903
 H   23.496419   36.214822   59.935227
 H   23.258640   33.908635   60.694634
 H   21.572781   33.864189   60.203631
 H   22.307190   36.060264   62.104649
 H   22.407612   34.427274   62.749638
 H   20.237598   35.310889   63.254793
 H   20.065472   33.990927   62.101474
 H   19.782475   35.620648   60.260555
 H   20.020385   36.955715   61.389373
 H   18.023586   36.291946   62.647159
 H   17.774191   34.902243   61.601058
 H   17.940380   37.582801   60.252189
 H   16.518614   37.288039   61.244541
 H   15.996410   36.713095   58.986447
 H   16.001393   35.245535   59.960872
 H   18.309021   36.130171   58.165214
 H   18.193967   34.596847   59.038380
 H   17.080437   34.944546   57.720932
