50 
2hmb_ligand_ani-2x.xyz
 C   20.808020   33.698982   52.309653
 O   21.796535   33.634324   51.629614
 O   19.618170   33.278115   51.819168
 C   20.775167   34.232131   53.731186
 C   22.141782   34.712645   54.205385
 C   22.115942   35.211690   55.647171
 C   23.469433   35.721329   56.146761
 C   23.437027   36.254191   57.583575
 C   23.195991   35.176175   58.641795
 C   22.997843   35.742942   60.047987
 C   22.666496   34.665673   61.092866
 C   21.825445   35.163949   62.280091
 C   20.310655   35.045148   62.053830
 C   19.778691   35.777946   60.822740
 C   18.263945   35.645187   60.648144
 C   17.702360   36.347472   59.401834
 C   17.666648   35.501418   58.121597
 C   19.021475   35.030358   57.602189
 H   18.921954   33.394619   52.480364
 H   20.396741   33.435208   54.389228
 H   20.039912   35.048876   53.779263
 H   22.491489   35.503653   53.530979
 H   22.859276   33.890673   54.098732
 H   21.759881   34.397230   56.295011
 H   21.376352   36.022801   55.731616
 H   23.816080   36.519567   55.476039
 H   24.212582   34.913013   56.074154
 H   22.648695   37.018572   57.660960
 H   24.382925   36.767466   57.804914
 H   24.030591   34.460130   58.636607
 H   22.300827   34.594722   58.376826
 H   22.187125   36.483633   60.012231
 H   23.889560   36.304258   60.359886
 H   23.603817   34.222125   61.451522
 H   22.116494   33.847257   60.605100
 H   22.087381   36.208388   62.505645
 H   22.081950   34.586877   63.177543
 H   19.784787   35.410884   62.946638
 H   20.054260   33.978571   61.965552
 H   20.283123   35.399396   59.926475
 H   20.036232   36.845725   60.892442
 H   17.778625   36.060449   61.542252
 H   17.987818   34.580446   60.620144
 H   18.279667   37.265696   59.217030
 H   16.676222   36.676175   59.611910
 H   17.167816   36.087226   57.339170
 H   17.024741   34.626456   58.294232
 H   19.717029   35.870571   57.472910
 H   19.486259   34.310619   58.284762
 H   18.922958   34.535745   56.629275
