34 
2hny_ligand_ani-2x.xyz
 N    2.213692  -37.597859   21.049272
 C    2.736360  -38.817745   20.475710
 C    3.083307  -39.940888   21.402510
 C    1.873119  -40.039948   20.523606
 N    4.383448  -36.994052   21.633868
 C    5.239443  -36.305284   22.380618
 C    4.856655  -35.506964   23.448272
 C    3.511552  -35.415460   23.780643
 C    3.050841  -34.574578   24.946072
 C    3.080472  -36.873449   21.895674
 C    2.596813  -36.119515   22.986430
 N    1.239531  -36.091999   23.348944
 C    0.106566  -35.954284   22.575919
 O   -0.928565  -35.592338   23.114483
 C    0.149064  -36.238441   21.109857
 C    1.101873  -37.024320   20.419521
 C   -0.933969  -35.749429   20.377293
 C   -1.034284  -35.997950   19.018717
 C   -0.050719  -36.790090   18.442420
 N    0.966622  -37.312248   19.118582
 H    3.359481  -38.665327   19.597615
 H    2.913388  -39.754540   22.459132
 H    3.957823  -40.545166   21.175147
 H    1.885384  -40.714551   19.671589
 H    0.905273  -39.914568   21.000211
 H    6.290425  -36.402294   22.118613
 H    5.602090  -34.966594   24.025168
 H    2.640722  -35.187978   25.757966
 H    3.890372  -34.009185   25.359573
 H    2.280986  -33.856580   24.640127
 H    1.042755  -35.826594   24.305673
 H   -1.685131  -35.176534   20.913154
 H   -1.857183  -35.607905   18.428263
 H   -0.088010  -37.032241   17.382557
