34 
2hny_ligand_aiqm1.xyz
 N    2.127622  -37.711867   21.172232
 C    2.686226  -38.880558   20.533669
 C    3.098424  -40.020616   21.416051
 C    1.866395  -40.137692   20.556179
 N    4.313167  -36.972605   21.583445
 C    5.189505  -36.255519   22.298882
 C    4.818912  -35.446371   23.357650
 C    3.473267  -35.376147   23.725398
 C    3.028690  -34.527572   24.883786
 C    3.032264  -36.920911   21.925351
 C    2.562033  -36.144727   22.999436
 N    1.208271  -36.152815   23.391195
 C    0.081527  -36.029079   22.624757
 O   -0.984418  -35.762932   23.157224
 C    0.167968  -36.231724   21.148647
 C    1.102204  -37.042117   20.474961
 C   -0.851421  -35.650962   20.398859
 C   -0.918322  -35.864672   19.030514
 C    0.041013  -36.693917   18.467413
 N    1.024935  -37.271922   19.164614
 H    3.284322  -38.693899   19.645798
 H    2.947527  -39.877100   22.478302
 H    3.984098  -40.574360   21.139223
 H    1.899191  -40.771342   19.681542
 H    0.907347  -40.074823   21.053086
 H    6.226143  -36.339689   21.999472
 H    5.561878  -34.874852   23.899887
 H    2.671940  -35.136959   25.718407
 H    3.858580  -33.923513   25.245534
 H    2.216281  -33.858198   24.595759
 H    1.013426  -35.977772   24.362905
 H   -1.589002  -35.057761   20.920561
 H   -1.698959  -35.425405   18.425502
 H    0.029163  -36.916497   17.406962
