49 
2hu6_ligand_aiqm1.xyz
 O   -0.922893   -2.742086    0.472350
 C   -1.118041   -1.850828   -0.340532
 C   -2.318185   -0.912830   -0.187734
 O   -2.141892    0.285699   -0.945453
 C   -2.495976   -0.420104    1.254418
 C   -3.959873   -0.212013    1.598467
 N   -4.563292    0.661570    0.587307
 C   -5.920432    0.694625    0.570986
 O   -6.632919   -0.091298    1.180605
 N   -6.500906    1.727865   -0.179130
 O   -7.895070    1.563418   -0.272503
 C   -3.775339    1.769369    0.072220
 O   -1.855379    0.860067    1.209784
 C   -2.304191    1.361697   -0.019452
 N   -0.390859   -1.643004   -1.451483
 C    0.829614   -2.400569   -1.714566
 C    2.066103   -1.682619   -1.233584
 C    2.893938   -0.999808   -2.124081
 C    4.014951   -0.310140   -1.671418
 C    4.339762   -0.287236   -0.310423
 C    3.509133   -0.979136    0.579005
 C    2.385630   -1.665922    0.127087
 C    5.531880    0.446502    0.174511
 C    6.333338   -0.083231    1.192423
 C    7.455210    0.604655    1.646262
 C    5.882606    1.685162   -0.374720
 C    7.000892    2.376446    0.082817
 C    7.791898    1.837601    1.093973
 H   -3.199226   -1.457586   -0.537291
 H   -1.988938   -1.041259    1.981861
 H   -4.506852   -1.152514    1.582307
 H   -4.057253    0.224298    2.595822
 H   -6.142327    1.809948   -1.120691
 H   -8.035511    0.774631    0.284763
 H   -4.109701    2.025500   -0.933478
 H   -3.863760    2.658578    0.702841
 H   -1.676308    2.194040   -0.327880
 H   -0.557770   -0.776496   -1.937951
 H    0.898194   -2.581316   -2.790449
 H    0.718329   -3.355399   -1.206508
 H    2.660853   -1.012853   -3.183379
 H    4.653905    0.202608   -2.380817
 H    3.735360   -0.963738    1.638378
 H    1.750728   -2.192456    0.829869
 H    6.083449   -1.047733    1.618107
 H    8.065932    0.175849    2.430332
 H    5.264265    2.115546   -1.153817
 H    7.252368    3.336154   -0.350302
 H    8.662244    2.373428    1.448182
