49 
2hu6_ligand_xtb.xyz
 O   -1.452471   -3.111167   -0.173468
 C   -1.501529   -1.975944   -0.597248
 C   -2.596010   -1.004730   -0.122614
 O   -2.332161    0.341658   -0.516532
 C   -2.572229   -0.925545    1.416883
 C   -3.931754   -0.482282    1.974786
 N   -4.367683    0.697300    1.246917
 C   -5.351457    0.537777    0.316989
 O   -6.149081   -0.386591    0.345037
 N   -5.502474    1.561355   -0.601941
 O   -6.539845    1.309179   -1.520060
 C   -3.347007    1.720336    1.190133
 O   -1.621684    0.115682    1.608150
 C   -2.049117    1.059246    0.676060
 N   -0.653292   -1.445872   -1.487123
 C    0.561295   -2.107264   -1.903933
 C    1.788962   -1.394100   -1.397052
 C    2.928301   -1.300092   -2.185240
 C    4.056690   -0.653449   -1.718866
 C    4.074941   -0.080236   -0.449712
 C    2.929892   -0.176790    0.337694
 C    1.802794   -0.824255   -0.129319
 C    5.275032    0.608710    0.047574
 C    5.701336    0.430929    1.361714
 C    6.832561    1.074710    1.827479
 C    6.008339    1.449941   -0.786005
 C    7.135816    2.097641   -0.316504
 C    7.552566    1.911063    0.990867
 H   -3.564007   -1.332547   -0.512528
 H   -2.203209   -1.836859    1.885980
 H   -4.683557   -1.261623    1.848795
 H   -3.823579   -0.236429    3.034996
 H   -4.687819    1.869504   -1.117318
 H   -6.961706    0.491198   -1.174727
 H   -3.659175    2.550013    0.561451
 H   -3.162403    2.088218    2.204884
 H   -1.251939    1.785886    0.493571
 H   -0.767691   -0.468425   -1.716481
 H    0.586483   -2.175358   -2.996393
 H    0.514060   -3.121101   -1.490825
 H    2.933388   -1.743292   -3.171006
 H    4.940583   -0.606361   -2.337818
 H    2.917247    0.274604    1.318881
 H    0.925861   -0.888414    0.499298
 H    5.153060   -0.233723    2.013419
 H    7.155652    0.922079    2.847035
 H    5.679019    1.611540   -1.802340
 H    7.691588    2.751848   -0.972566
 H    8.435099    2.415116    1.356064
