53 
2hxl_ligand_ani-2x.xyz
 C   22.367552   -2.350320    8.498075
 C   21.248969   -2.842847    9.151650
 C   20.064594   -2.085832    9.151333
 C   20.033951   -0.840385    8.476905
 C   21.156996   -0.338791    7.809476
 C   22.309884   -1.107030    7.831647
 C   18.759886   -2.279223    9.707610
 C   17.995033   -1.186813    9.373180
 N   18.772229   -0.323173    8.630168
 C   16.619915   -0.822408    9.649138
 C   15.624185   -1.547558   10.391947
 C   14.488553   -0.724771   10.333209
 N   14.850121    0.367749    9.608405
 N   16.126070    0.321642    9.191687
 C   15.565422   -2.770792   11.084028
 C   14.383142   -3.125031   11.687694
 C   13.245003   -2.279479   11.617480
 C   13.278442   -1.070628   10.942145
 C   12.026895   -2.697608   12.268876
 C   23.649009   -3.153800    8.487130
 N   23.452704   -4.514221    8.013105
 C   23.059026   -4.547119    6.609502
 C   24.634947   -5.332800    8.237512
 C   24.358131   -6.785746    7.870398
 C   22.717782   -5.969462    6.175994
 C   23.898564   -6.913564    6.416069
 C   23.565558   -8.376363    6.084215
 N   23.173567   -8.675984    4.713340
 N   11.054940   -3.043736   12.795508
 H   21.295803   -3.808780    9.649902
 H   21.125904    0.616470    7.292050
 H   23.199060   -0.747660    7.317232
 H   18.437678   -3.133584   10.287804
 H   18.409263    0.550548    8.275819
 H   14.268037    1.155932    9.374916
 H   16.429798   -3.421776   11.142380
 H   14.308956   -4.062753   12.228382
 H   12.402997   -0.429981   10.893468
 H   24.045822   -3.218579    9.509790
 H   24.413006   -2.620331    7.887820
 H   23.865781   -4.146871    5.958542
 H   22.191630   -3.892128    6.479578
 H   24.910360   -5.259383    9.295937
 H   25.502168   -4.961322    7.650365
 H   23.571269   -7.176342    8.530607
 H   25.256079   -7.393928    8.041517
 H   22.427334   -5.965955    5.117055
 H   21.847552   -6.319653    6.749550
 H   24.728983   -6.595349    5.761509
 H   22.752759   -8.708650    6.744936
 H   24.433712   -9.001365    6.329482
 H   22.313003   -8.190063    4.478190
 H   23.881978   -8.346405    4.062746
