53 
2hxl_ligand_dft.xyz
 C   22.401943   -2.248080    8.384237
 C   21.260476   -2.811513    8.932533
 C   20.091908   -2.044169    9.032049
 C   20.102749   -0.705039    8.574006
 C   21.244855   -0.125475    8.018022
 C   22.378946   -0.913445    7.928513
 C   18.771835   -2.303496    9.523921
 C   18.045948   -1.151633    9.357143
 N   18.849222   -0.188108    8.784020
 C   16.662867   -0.830162    9.664927
 C   15.668065   -1.602682   10.353381
 C   14.523266   -0.779418   10.349442
 N   14.884472    0.363821    9.705342
 N   16.166425    0.337074    9.292514
 C   15.610744   -2.862313   10.971156
 C   14.427375   -3.264227   11.549992
 C   13.286495   -2.421492   11.525612
 C   13.312709   -1.169429   10.930295
 C   12.069301   -2.877369   12.139407
 C   23.684558   -3.051457    8.305610
 N   23.460867   -4.441175    7.941384
 C   23.003293   -4.571779    6.563716
 C   24.639410   -5.261836    8.179524
 C   24.337031   -6.735142    7.920858
 C   22.636901   -6.017245    6.243620
 C   23.813321   -6.962738    6.500020
 C   23.452920   -8.437781    6.270701
 N   23.005122   -8.809146    4.932854
 N   11.088007   -3.245408   12.634437
 H   21.283656   -3.846628    9.260860
 H   21.243465    0.899639    7.659844
 H   23.281171   -0.493192    7.490860
 H   18.414507   -3.236814    9.933095
 H   18.526337    0.738785    8.557823
 H   14.325847    1.177452    9.509050
 H   16.478561   -3.510378   11.003460
 H   14.352565   -4.231012   12.034778
 H   12.434073   -0.534184   10.923360
 H   24.172331   -3.044550    9.289247
 H   24.388417   -2.555008    7.607653
 H   23.785879   -4.224353    5.856462
 H   22.133181   -3.923355    6.425638
 H   24.953596   -5.122761    9.220264
 H   25.487565   -4.942297    7.538317
 H   23.580250   -7.068787    8.643423
 H   25.241532   -7.331040    8.094869
 H   22.310323   -6.079704    5.198511
 H   21.787240   -6.314511    6.873831
 H   24.619286   -6.696817    5.795335
 H   22.663329   -8.726252    6.977525
 H   24.325004   -9.057856    6.515343
 H   22.140104   -8.327606    4.705119
 H   23.690751   -8.511907    4.243099
