10 
2hzl_ligand_dft.xyz
 C   -0.767546    0.282854    0.000010
 O   -1.006413    1.461009   -0.000009
 O   -1.686895   -0.676680    0.000007
 C    0.672835   -0.282526    0.000002
 O    0.800733   -1.489563   -0.000005
 C    1.791376    0.708929   -0.000005
 H   -1.201075   -1.524924   -0.000020
 H    1.705546    1.359510    0.876452
 H    2.751167    0.191707   -0.000416
 H    1.704972    1.360035   -0.876005
