39 
2i0g_ligand_ani-2x.xyz
 C   -1.550662   -1.252503   -0.430824
 C   -2.137972    0.146280   -0.324426
 C   -3.520704    0.340558   -0.362050
 C   -4.077165    1.610011   -0.242521
 C   -3.242449    2.712166   -0.065285
 C    2.882895   -0.765450   -1.452886
 C    4.126702    0.979784    0.304175
 C    2.739130    0.954395    0.210441
 C   -1.244941   -1.704701    1.901077
 C    0.155959   -1.372579    1.342719
 C   -0.027941   -1.232313   -0.189466
 O   -5.435829    1.713572   -0.295260
 C   -1.867387    2.535339   -0.025963
 C   -1.314026    1.264218   -0.170225
 O    0.046915    1.167794   -0.131152
 C    0.594787    0.026918   -0.786326
 C    2.100820    0.083496   -0.667899
 C    4.266333   -0.749363   -1.374852
 C    4.893358    0.128580   -0.489540
 O    6.253904    0.107251   -0.446093
 C   -2.040218   -2.192612    0.684680
 H   -1.784643   -1.651944   -1.426807
 H   -4.193145   -0.504450   -0.486012
 H   -3.664308    3.711195    0.040544
 H    2.393034   -1.456637   -2.138461
 H    4.612304    1.667348    0.996419
 H    2.147185    1.624218    0.827204
 H   -1.710771   -0.791356    2.290446
 H   -1.218637   -2.435793    2.715958
 H    0.548759   -0.448457    1.777568
 H    0.879685   -2.164411    1.561041
 H    0.401869   -2.111045   -0.686317
 H   -5.680094    2.642063   -0.196677
 H   -1.200154    3.382007    0.104627
 H    0.323900    0.077778   -1.853032
 H    4.877768   -1.406769   -1.985910
 H    6.559269    0.755376    0.201151
 H   -1.769228   -3.226006    0.436387
 H   -3.124603   -2.164157    0.833346
