39 
2i0g_ligand_xtb.xyz
 C   -1.533364   -1.241625   -0.444729
 C   -2.131445    0.140613   -0.360884
 C   -3.509207    0.300538   -0.376365
 C   -4.092692    1.549041   -0.218177
 C   -3.283032    2.662904   -0.033713
 C    2.867451   -0.720104   -1.522719
 C    4.084468    0.867441    0.381930
 C    2.708942    0.888566    0.238454
 C   -1.165648   -1.597813    1.894598
 C    0.207272   -1.285356    1.282006
 C   -0.011203   -1.199124   -0.241004
 O   -5.455581    1.634297   -0.242748
 C   -1.910376    2.522616   -0.049716
 C   -1.326313    1.272417   -0.226500
 O    0.038535    1.231593   -0.259006
 C    0.585330    0.073678   -0.859051
 C    2.085418    0.094907   -0.711550
 C    4.239140   -0.751403   -1.384061
 C    4.858687    0.044458   -0.424800
 O    6.214322   -0.012145   -0.316725
 C   -2.000119   -2.115552    0.726201
 H   -1.799363   -1.692098   -1.406628
 H   -4.154989   -0.552939   -0.511561
 H   -3.726181    3.639721    0.106644
 H    2.396035   -1.335138   -2.275653
 H    4.560367    1.494086    1.125216
 H    2.113753    1.538632    0.859718
 H   -1.620265   -0.685991    2.284636
 H   -1.098914   -2.319663    2.707250
 H    0.600517   -0.345190    1.666131
 H    0.931198   -2.065997    1.514322
 H    0.447337   -2.059903   -0.734253
 H   -5.721602    2.553462   -0.123536
 H   -1.265574    3.378558    0.072163
 H    0.328537    0.079817   -1.933733
 H    4.851187   -1.381034   -2.009842
 H    6.511211    0.589795    0.376334
 H   -1.755136   -3.158709    0.518747
 H   -3.069005   -2.037557    0.912403
