46 
2i0y_ligand_aiqm1.xyz
 C    4.693179   29.415950    6.750866
 C    3.931940   30.527042    7.100402
 C    3.893042   30.972432    8.423968
 C    6.277837   28.406792    3.548074
 C    6.039276   29.311956    4.748078
 C    3.662207   29.111065    4.548609
 C    3.797372   28.195996    3.338184
 C    5.098349   28.453160    2.580028
 C    5.284427   27.455687    1.443645
 C    4.629584   30.769977   10.836524
 C    6.940350   26.792911    8.006768
 C    7.449428   25.664755    7.183069
 C    8.390284   24.711531    7.437342
 C    7.231019   24.143365    4.035957
 C    4.622920   30.308831    9.402576
 C    5.374324   29.175732    9.073915
 C    5.396313   28.727954    7.759115
 N    4.804863   28.897186    5.430128
 O    3.760904   31.882156   10.980596
 N    6.075659   27.573422    7.328361
 O    7.317696   26.949793    9.157062
 C    8.489503   23.920703    6.252885
 C    7.596626   24.458220    5.369906
 O    6.952673   25.520739    5.925980
 N    6.938813   23.889910    2.942076
 H    3.363795   31.044676    6.337325
 H    3.305051   31.836029    8.700133
 H    6.411515   27.374011    3.899989
 H    7.198362   28.700533    3.035490
 H    5.956467   30.360071    4.418016
 H    6.872009   29.259619    5.453329
 H    2.743867   28.886819    5.092804
 H    3.610052   30.161243    4.219477
 H    2.940929   28.335335    2.672365
 H    3.784876   27.155581    3.679426
 H    5.048807   29.462651    2.154836
 H    5.366296   26.439925    1.841890
 H    4.440452   27.479789    0.751878
 H    6.193479   27.669360    0.878624
 H    5.653255   31.035557   11.124842
 H    4.313132   29.942361   11.481580
 H    8.933112   24.609595    8.359989
 H    5.931021   28.647929    9.838232
 H    3.781966   32.162330   11.895976
 H    5.845289   27.305451    6.383480
 H    9.126583   23.073671    6.063307
