46 
2i0y_ligand_ani-2x.xyz
 C    4.719704   29.464700    6.743568
 C    4.021259   30.617465    7.095110
 C    4.008319   31.053096    8.418196
 C    6.236645   28.453073    3.492082
 C    6.015608   29.387728    4.675111
 C    3.631863   29.079458    4.578097
 C    3.760541   28.103661    3.414244
 C    5.007856   28.407042    2.579838
 C    5.191160   27.382654    1.461127
 C    4.717017   30.834248   10.829014
 C    6.872211   26.733726    8.026548
 C    7.418801   25.647237    7.191241
 C    8.256637   24.619002    7.493898
 C    7.542339   24.300428    3.938327
 C    4.692726   30.343565    9.403519
 C    5.387124   29.181317    9.063135
 C    5.395307   28.738695    7.749459
 N    4.819255   28.969147    5.410702
 O    3.528566   31.550630   11.101712
 N    6.032546   27.557519    7.335313
 O    7.183723   26.836478    9.204237
 C    8.454374   23.898872    6.283897
 C    7.723674   24.543158    5.333223
 O    7.081186   25.614110    5.868774
 N    7.409238   24.091918    2.805766
 H    3.481137   31.175082    6.333328
 H    3.453828   31.942553    8.698806
 H    6.445207   27.441285    3.865173
 H    7.120927   28.770653    2.923845
 H    5.916254   30.432758    4.325270
 H    6.871986   29.361288    5.356557
 H    2.756843   28.839315    5.188513
 H    3.492749   30.105022    4.181144
 H    2.860269   28.139904    2.787308
 H    3.835861   27.084854    3.820919
 H    4.878966   29.406088    2.130986
 H    5.288969   26.374222    1.883207
 H    4.334425   27.377231    0.778004
 H    6.094937   27.585843    0.875442
 H    5.600017   31.478625   10.979743
 H    4.828997   29.972167   11.506680
 H    8.672776   24.419655    8.472988
 H    5.928938   28.604075    9.805947
 H    3.608857   31.930026   11.984442
 H    5.831352   27.312909    6.372511
 H    9.057924   23.017319    6.120147
