46 
2i1m_ligand_aiqm1.xyz
 C   45.740871   40.446753   -8.543839
 C   45.030449   39.348393   -9.021687
 C   45.155909   38.937367  -10.349245
 C   46.832143   40.970832   -5.016020
 C   46.752040   40.290150   -6.375372
 C   44.394260   40.711474   -6.529125
 C   44.396559   41.439789   -5.192911
 C   45.495691   40.900796   -4.281354
 C   45.547602   41.655593   -2.959809
 C   46.192164   39.204737  -12.641942
 C   48.070159   43.128777   -9.520829
 C   48.457913   44.310866   -8.712155
 C   49.333654   45.313856   -9.005533
 C   47.971363   46.077878   -5.725116
 C   46.006284   39.623348  -11.206661
 C   46.714837   40.739054  -10.751252
 C   46.572962   41.154535   -9.430577
 N   45.686422   40.898744   -7.188324
 O   45.364072   38.087058  -12.920151
 N   47.212537   42.293477   -8.896736
 O   48.536792   42.984930  -10.640634
 C   49.314475   46.198914   -7.887711
 C   48.423870   45.660377   -7.003335
 O   47.893240   44.505149   -7.491793
 N   47.620872   46.449652   -4.684219
 H   44.371752   38.810020   -8.351862
 H   44.605266   38.084998  -10.720734
 H   47.106222   42.023238   -5.151603
 H   47.618041   40.501289   -4.417574
 H   46.556150   39.213634   -6.239573
 H   47.697724   40.379632   -6.915244
 H   43.607633   41.098663   -7.177587
 H   44.192489   39.642682   -6.356160
 H   43.419082   41.333728   -4.714137
 H   44.569493   42.507613   -5.366399
 H   45.277413   39.846809   -4.071604
 H   45.759141   42.713104   -3.137587
 H   44.597063   41.586350   -2.427305
 H   46.330106   41.259425   -2.309795
 H   47.246871   38.959827  -12.811887
 H   45.942730   40.046916  -13.297401
 H   49.903691   45.385262   -9.914630
 H   47.366635   41.278588  -11.425874
 H   45.497534   37.835312  -13.834309
 H   46.896721   42.543628   -7.971423
 H   49.869300   47.109584   -7.739079
