28 
2i2b_ligand_aiqm1.xyz
 N    3.252956    1.874254   -0.515728
 C    2.013571    2.329200   -0.276662
 N    0.916434    1.638218    0.032002
 C    1.176117    0.317245    0.097041
 N    0.305799   -0.697735    0.387155
 C    1.041926   -1.860791    0.340140
 N    2.299372   -1.666072    0.028413
 C    2.397605   -0.295036   -0.126426
 C    3.469115    0.552528   -0.453303
 N    4.701615    0.078941   -0.728262
 C   -1.095233   -0.516781    0.797707
 C   -1.870395    0.406741   -0.150673
 C   -3.269847   -0.192106   -0.081225
 C   -2.952660   -1.672290    0.010967
 O   -1.727786   -1.766671    0.764995
 O   -1.883489    1.748638    0.254930
 O   -3.937110    0.204166    1.100509
 H    1.893602    3.401755   -0.346040
 H    0.583667   -2.813020    0.540474
 H    5.452501    0.734979   -0.840465
 H    4.899215   -0.891734   -0.568683
 H   -1.101911   -0.115420    1.815133
 H   -1.479020    0.290028   -1.167910
 H   -3.862719    0.055934   -0.965385
 H   -3.721030   -2.214847    0.556852
 H   -2.808129   -2.112540   -0.980468
 H   -0.958979    2.046406    0.227611
 H   -3.734987    1.135911    1.224001
