69 
2i4j_ligand_dft.xyz
 C    5.880587   -1.761331    2.477521
 C    5.520729   -2.621156    1.267993
 C    4.831158   -1.844105    0.129972
 C    5.770014   -0.714241   -0.319373
 O    6.895512   -1.210183   -0.873384
 O    5.591019    0.470223   -0.185388
 C    4.521629   -2.774333   -1.046349
 O    3.661648   -1.287275    0.715194
 C    2.589249   -0.952417   -0.081628
 C    1.505669   -1.825677   -0.134532
 C    0.381336   -1.493381   -0.882333
 C    2.542736    0.259185   -0.768625
 C    1.412472    0.576101   -1.514588
 C    0.316886   -0.288412   -1.584018
 C   -0.946425    0.125139   -2.294025
 C   -1.811922    1.041276   -1.413548
 N   -2.190474    0.428428   -0.147495
 C   -1.419465    0.662251    1.071949
 C   -2.039594    1.721612    1.986893
 C   -2.170207    3.105826    1.346039
 C   -0.833253    3.790348    1.053084
 C   -0.994427    5.136215    0.347261
 C    0.335941    5.837476    0.072515
 C    0.164342    7.181954   -0.632318
 C   -3.216492   -0.443581   -0.165633
 O   -3.561739   -1.007995    1.029273
 C   -4.624834   -1.822467    0.709510
 C   -5.365821   -2.627597    1.547949
 C   -6.400530   -3.344459    0.942144
 C   -6.649422   -3.237469   -0.430546
 C   -5.881167   -2.415434   -1.253923
 C   -4.848653   -1.694186   -0.662886
 N   -3.922020   -0.805161   -1.200111
 H    6.301717   -2.384246    3.272397
 H    4.995491   -1.252895    2.867100
 H    6.624973   -0.998888    2.223160
 H    6.415733   -3.104437    0.863413
 H    4.824313   -3.412708    1.566493
 H    7.444172   -0.442785   -1.102244
 H    4.049387   -2.238004   -1.873909
 H    5.442691   -3.234260   -1.410063
 H    3.838169   -3.561782   -0.715391
 H    1.554712   -2.758124    0.419238
 H   -0.464804   -2.175415   -0.913018
 H    3.386110    0.936028   -0.702240
 H    1.376825    1.526154   -2.044158
 H   -0.712389    0.665032   -3.219463
 H   -1.544852   -0.749431   -2.568075
 H   -1.267507    1.961439   -1.182616
 H   -2.724477    1.312642   -1.951774
 H   -0.410534    0.948256    0.765499
 H   -1.319431   -0.284164    1.609773
 H   -1.421396    1.788726    2.892268
 H   -3.027084    1.368095    2.304863
 H   -2.757774    3.751062    2.011496
 H   -2.754675    3.020447    0.419473
 H   -0.288000    3.933373    1.996573
 H   -0.195752    3.142508    0.434815
 H   -1.633320    5.792705    0.954983
 H   -1.528049    4.985336   -0.602553
 H    0.972331    5.181016   -0.536311
 H    0.867831    5.984985    1.021731
 H   -0.449141    7.863385   -0.031710
 H    1.129706    7.667197   -0.809214
 H   -0.331302    7.057003   -1.602018
 H   -5.159301   -2.697347    2.610141
 H   -7.022014   -3.993695    1.550657
 H   -7.464072   -3.809202   -0.864907
 H   -6.075557   -2.331858   -2.317762
