69 
2i4p_ligand_aiqm1.xyz
 C    5.400365   -2.828756   -2.456739
 C    6.082594   -2.398789   -1.164827
 C    5.210428   -1.571339   -0.205982
 C    4.885646   -0.251890   -0.928243
 O    3.936865   -0.046648   -1.632395
 O    5.863395    0.664199   -0.735663
 C    5.968703   -1.348535    1.100624
 O    4.037877   -2.344790   -0.002338
 C    3.007212   -1.885868    0.776294
 C    2.000045   -2.815510    1.022662
 C    0.886951   -2.456528    1.767836
 C    2.898166   -0.598464    1.295893
 C    1.772093   -0.256455    2.045279
 C    0.745607   -1.166220    2.290263
 C   -0.503132   -0.752168    3.016624
 C   -1.651599   -0.434132    2.053476
 N   -1.324216    0.630447    1.111037
 C   -0.809453    0.329252   -0.222432
 C   -1.864156    0.445381   -1.319023
 C   -3.028864   -0.522395   -1.154542
 C   -4.035106   -0.445439   -2.294789
 C   -5.197506   -1.415744   -2.126095
 C   -6.253743   -1.323872   -3.225442
 C   -5.740131   -1.747155   -4.598179
 C   -1.374164    1.893934    1.554141
 O   -1.042624    2.865700    0.650183
 C   -1.192445    4.034057    1.369575
 C   -0.982869    5.329758    0.942695
 C   -1.213902    6.322158    1.897368
 C   -1.628722    6.003089    3.195122
 C   -1.831003    4.683366    3.596135
 C   -1.605481    3.686323    2.654967
 N   -1.712205    2.298104    2.747841
 H    5.042292   -1.973956   -3.028551
 H    6.103383   -3.383241   -3.079378
 H    4.547373   -3.471000   -2.249919
 H    6.972651   -1.801898   -1.375667
 H    6.410477   -3.277022   -0.606524
 H    5.629984    1.427246   -1.278348
 H    6.184704   -2.323483    1.535360
 H    5.392679   -0.774543    1.821220
 H    6.903310   -0.827714    0.908862
 H    2.098171   -3.809876    0.607766
 H    0.109310   -3.193293    1.937294
 H    3.661060    0.145759    1.118474
 H    1.691550    0.750490    2.440011
 H   -0.308171    0.134695    3.620935
 H   -0.833540   -1.546167    3.688499
 H   -2.524828   -0.111628    2.624315
 H   -1.923011   -1.316801    1.475883
 H    0.020716    1.004248   -0.429715
 H   -0.412592   -0.685030   -0.199661
 H   -2.240918    1.472995   -1.349089
 H   -1.371024    0.261012   -2.277134
 H   -2.643151   -1.547449   -1.088886
 H   -3.546202   -0.324473   -0.208677
 H   -3.522858   -0.642714   -3.243242
 H   -4.424072    0.576225   -2.362340
 H   -5.673709   -1.230887   -1.158302
 H   -4.807807   -2.440505   -2.086249
 H   -7.103361   -1.953752   -2.949813
 H   -6.634215   -0.298258   -3.275604
 H   -5.345546   -2.764878   -4.567906
 H   -6.537623   -1.718879   -5.342068
 H   -4.939977   -1.093233   -4.947838
 H   -0.662761    5.563072   -0.063439
 H   -1.068766    7.358068    1.624129
 H   -1.797333    6.801506    3.905755
 H   -2.150919    4.440493    4.598318
