69 
2i4p_ligand_xtb.xyz
 C    4.790744   -2.504912   -2.282534
 C    5.702086   -1.830020   -1.265313
 C    4.930518   -1.102282   -0.135232
 C    4.101858   -0.014760   -0.815358
 O    2.980224   -0.150761   -1.223382
 O    4.793016    1.118648   -0.983544
 C    5.941960   -0.537069    0.869702
 O    4.099454   -2.083247    0.457239
 C    3.008197   -1.734181    1.198475
 C    2.130619   -2.780304    1.483791
 C    0.968226   -2.548960    2.187771
 C    2.718801   -0.466133    1.686750
 C    1.549217   -0.247252    2.392246
 C    0.648418   -1.272523    2.636110
 C   -0.686057   -0.972822    3.250294
 C   -1.726821   -0.751098    2.133260
 N   -1.252025    0.163732    1.119662
 C   -0.687097   -0.314938   -0.125607
 C   -1.610287   -0.036956   -1.315234
 C   -2.951016   -0.756410   -1.193069
 C   -3.858705   -0.476113   -2.388500
 C   -5.195558   -1.204429   -2.266943
 C   -6.174088   -0.868634   -3.392832
 C   -5.726660   -1.390456   -4.753354
 C   -1.144852    1.456353    1.448917
 O   -0.595103    2.317109    0.544329
 C   -0.649298    3.530789    1.176228
 C   -0.232175    4.768015    0.741780
 C   -0.418971    5.827377    1.617831
 C   -0.998094    5.641575    2.868602
 C   -1.417367    4.396702    3.302352
 C   -1.239664    3.326523    2.439376
 N   -1.537886    1.989682    2.569071
 H    4.177760   -1.778901   -2.810235
 H    5.389768   -3.047488   -3.009874
 H    4.130090   -3.204961   -1.779172
 H    6.353270   -1.104948   -1.756342
 H    6.325416   -2.587585   -0.787633
 H    4.253084    1.768235   -1.462829
 H    6.526148   -1.359902    1.274811
 H    5.447541   -0.033773    1.695340
 H    6.605935    0.165579    0.375717
 H    2.375852   -3.766302    1.121353
 H    0.290486   -3.368693    2.380187
 H    3.375682    0.370642    1.504022
 H    1.330498    0.748366    2.750925
 H   -0.631049   -0.062322    3.846159
 H   -1.024319   -1.793957    3.883324
 H   -2.636076   -0.334363    2.574492
 H   -1.960623   -1.696152    1.641726
 H    0.281399    0.164138   -0.297929
 H   -0.515157   -1.387759   -0.027857
 H   -1.779136    1.038478   -1.389179
 H   -1.098742   -0.359388   -2.223777
 H   -2.778364   -1.833227   -1.118014
 H   -3.451147   -0.433011   -0.277455
 H   -3.348551   -0.788716   -3.301018
 H   -4.039774    0.599002   -2.458835
 H   -5.654948   -0.933924   -1.312740
 H   -5.019671   -2.282816   -2.253680
 H   -7.145725   -1.306182   -3.150802
 H   -6.304373    0.214699   -3.444782
 H   -5.553519   -2.463750   -4.710565
 H   -6.491714   -1.196763   -5.501917
 H   -4.808884   -0.905717   -5.075357
 H    0.214777    4.903343   -0.230491
 H   -0.107436    6.817172    1.319841
 H   -1.123530    6.495641    3.518061
 H   -1.866683    4.253259    4.271441
