69 
2i4z_ligand_aiqm1.xyz
 C   -4.248475   -2.602845    2.958082
 C   -4.826291   -2.309485    1.579839
 C   -3.789789   -1.941058    0.509128
 C   -3.101584   -0.626761    0.903174
 O   -3.911456    0.431684    0.670402
 O   -2.008507   -0.515559    1.381726
 C   -4.478362   -1.764551   -0.842533
 O   -2.865201   -3.035044    0.497302
 C   -1.693658   -2.926331   -0.223825
 C   -0.492586   -2.899154    0.479457
 C    0.711714   -2.769189   -0.202150
 C   -1.674689   -2.927815   -1.616914
 C   -0.462305   -2.775452   -2.286552
 C    0.742024   -2.649182   -1.592995
 C    1.999158   -2.240811   -2.309063
 C    2.029780   -0.720174   -2.531608
 N    1.945144    0.042883   -1.291730
 C    0.650877    0.420673   -0.726528
 C    0.297819    1.889461   -0.941712
 C   -1.062303    2.211581   -0.337192
 C   -1.483703    3.667009   -0.487942
 C   -2.850592    3.955465    0.119159
 C   -3.254552    5.427770    0.073784
 C   -3.437166    5.966841   -1.341563
 C    3.070151    0.200123   -0.580184
 O    2.957309    0.905110    0.585160
 C    4.246953    0.916390    1.076677
 C    4.708741    1.491174    2.243647
 C    6.075245    1.341174    2.487508
 C    6.903617    0.649346    1.596656
 C    6.406144    0.078192    0.426387
 C    5.047674    0.221519    0.171530
 N    4.261147   -0.233502   -0.887528
 H   -3.704559   -1.747807    3.363144
 H   -3.564281   -3.446793    2.914845
 H   -5.051959   -2.847171    3.653724
 H   -5.353953   -3.187293    1.205313
 H   -5.549649   -1.492386    1.626543
 H   -3.438099    1.234147    0.926688
 H   -4.852642   -2.730788   -1.172939
 H   -5.310863   -1.072409   -0.745345
 H   -3.796485   -1.368021   -1.592948
 H   -0.523282   -2.922801    1.560567
 H    1.637703   -2.712550    0.358660
 H   -2.592361   -3.027935   -2.180713
 H   -0.462519   -2.727685   -3.370313
 H    2.067052   -2.730674   -3.281717
 H    2.879826   -2.520955   -1.730076
 H    2.960373   -0.440634   -3.027213
 H    1.192722   -0.409267   -3.160295
 H    0.649304    0.197283    0.339590
 H   -0.114365   -0.201892   -1.188881
 H    1.071200    2.522579   -0.494939
 H    0.288028    2.106165   -2.017162
 H   -1.817956    1.566782   -0.805711
 H   -1.048365    1.944499    0.725178
 H   -1.490110    3.936099   -1.549817
 H   -0.737219    4.311976   -0.012577
 H   -2.849806    3.626088    1.166012
 H   -3.611779    3.356078   -0.398269
 H   -2.499712    6.023351    0.597522
 H   -4.186783    5.554192    0.629656
 H   -4.172908    5.375970   -1.890952
 H   -2.503664    5.940453   -1.905528
 H   -3.782652    7.001250   -1.324783
 H    4.057468    2.021782    2.924370
 H    6.498876    1.769532    3.385227
 H    7.957600    0.554622    1.822557
 H    7.047556   -0.456721   -0.257887
