54 
2i6b_ligand_ani-2x.xyz
 C    5.366547   -2.569656   30.157148
 N    4.388707   -2.609207   29.269703
 C    4.763033   -2.762232   27.993643
 C    6.109862   -2.855178   27.608462
 C    7.053574   -2.804968   28.669863
 N    6.677649   -2.658514   29.932838
 C    6.542724   -2.985393   26.198486
 C    5.949277   -3.920768   25.340818
 C    6.336144   -4.044455   24.019158
 C    7.332948   -3.213638   23.467023
 C    7.934861   -2.279050   24.332090
 C    7.557957   -2.184632   25.659300
 C    0.780762   -2.926509   24.919033
 N    0.004878   -2.991826   23.847890
 C    0.575650   -3.064117   22.633961
 C    1.976685   -3.017544   22.474239
 C    2.761794   -2.940065   23.604493
 C    2.174385   -2.900480   24.873318
 C    0.246767   -3.238241   20.208120
 C   -0.788485   -3.815250   19.250447
 O   -2.026574   -3.146749   19.353556
 C   -2.545092   -3.278779   20.660114
 C   -1.622261   -2.637005   21.681215
 N   -0.283003   -3.204217   21.563001
 C    3.735904   -2.786179   26.996645
 C    2.977108   -2.831991   26.056436
 N    7.697594   -3.309947   22.143212
 C    8.760110   -2.477101   21.629030
 C    7.041829   -4.270417   21.285644
 N    8.405690   -2.878167   28.432615
 H    5.068161   -2.449306   31.196587
 H    5.181772   -4.584657   25.728567
 H    5.840201   -4.787459   23.405026
 H    8.719867   -1.627270   23.968921
 H    8.058387   -1.459977   26.298785
 H    0.273991   -2.886391   25.881524
 H    2.434298   -3.018481   21.492504
 H    3.847679   -2.914839   23.521140
 H    0.543077   -2.233438   19.867299
 H    1.127051   -3.886185   20.178660
 H   -0.922789   -4.889566   19.452986
 H   -0.447882   -3.700084   18.216963
 H   -2.690474   -4.342818   20.904299
 H   -3.522279   -2.785638   20.665842
 H   -1.982007   -2.817305   22.695882
 H   -1.598018   -1.547101   21.518060
 H    8.512671   -1.409899   21.711184
 H    9.702566   -2.645703   22.168123
 H    8.926085   -2.707704   20.572906
 H    7.227134   -5.304117   21.610353
 H    5.955015   -4.111875   21.272251
 H    7.413396   -4.163256   20.262423
 H    8.699251   -3.441659   27.646471
 H    8.944726   -3.032000   29.273145
