29 
2igv_ligand_aiqm1.xyz
 N    2.450337    0.155601    1.267961
 C    1.675890   -0.075872    0.004781
 C    0.542796   -1.035392    0.401124
 O    0.889802   -2.088053    0.916391
 C    2.613000   -0.689706   -1.027019
 O    3.753298    0.159012   -1.031887
 N   -0.719239   -0.652543    0.213483
 C   -1.202115    0.679669   -0.167725
 C   -0.819625    1.720429    0.885894
 O    0.068755    1.561192    1.694280
 C   -2.716545    0.455752   -0.294646
 C   -3.007304   -0.615835    0.755018
 C   -1.824514   -1.568006    0.615639
 O   -1.520179    2.836147    0.770309
 H    3.370555    0.520714    1.034671
 H    2.529499   -0.744480    1.750448
 H    1.921552    0.806333    1.850152
 H    1.340375    0.886285   -0.353677
 H    2.870958   -1.708218   -0.741499
 H    2.106399   -0.700095   -1.989574
 H    4.365166   -0.129515   -1.705088
 H   -0.768565    1.017907   -1.110383
 H   -2.918130    0.070196   -1.292284
 H   -3.277911    1.373796   -0.153479
 H   -3.029968   -0.176179    1.753663
 H   -3.951129   -1.119232    0.580263
 H   -1.543815   -2.080867    1.531759
 H   -1.979253   -2.312981   -0.162917
 H   -1.219888    3.454242    1.451842
