29 
2igv_ligand_ani-2x.xyz
 N    2.401146    0.162568    1.242088
 C    1.663398   -0.065970   -0.039793
 C    0.540005   -1.036789    0.327868
 O    0.854635   -2.101416    0.851452
 C    2.673243   -0.648875   -1.026918
 O    3.807098    0.202577   -0.905048
 N   -0.759774   -0.673020    0.152995
 C   -1.254447    0.657592   -0.171832
 C   -0.787348    1.712001    0.835183
 O    0.037658    1.551026    1.706886
 C   -2.785329    0.477814   -0.177891
 C   -3.021652   -0.669113    0.807639
 C   -1.821819   -1.589183    0.581952
 O   -1.377129    2.896730    0.608912
 H    3.349215    0.485965    0.982708
 H    2.408809   -0.760203    1.717417
 H    1.869302    0.858724    1.786077
 H    1.313657    0.888589   -0.425034
 H    2.913990   -1.681726   -0.740868
 H    2.269371   -0.644199   -2.048795
 H    4.542721   -0.180485   -1.397149
 H   -0.900782    0.991336   -1.156429
 H   -3.098626    0.183607   -1.184578
 H   -3.305820    1.400510    0.086685
 H   -3.018528   -0.295405    1.837061
 H   -3.975376   -1.176888    0.639417
 H   -1.493424   -2.122408    1.477800
 H   -2.007253   -2.335163   -0.200730
 H   -1.036742    3.512104    1.280424
