36 
2ihq_ligand_aiqm1.xyz
 C    0.968457   -1.816988   -0.600641
 C    4.012551    1.053126    2.259277
 C    4.202468   -0.081266    1.513768
 C    3.123724   -0.665936    0.799247
 C    3.295227   -1.856676    0.029932
 C    2.732749    1.654872    2.322382
 C    1.674488    1.112242    1.639791
 C    1.841038   -0.064068    0.856475
 C    4.590104   -2.478175   -0.029103
 C    0.775384   -0.672634    0.127773
 O   -3.304398   -0.836701   -1.832423
 C   -3.887547   -0.167504   -0.726407
 C   -4.308953    1.216693   -1.199980
 C   -3.004394    2.032301   -1.226183
 N   -2.182691    1.381471   -0.188210
 C   -2.819092    0.180262    0.321822
 C   -1.675252   -0.797942    0.471063
 O   -1.751574   -1.962674    0.779029
 N   -0.528591   -0.093038    0.164705
 C   -0.841638    1.168098   -0.418394
 O   -0.064824    1.892405   -0.987349
 C    2.240622   -2.420553   -0.647420
 N    5.640873   -2.967999   -0.067319
 H    0.139297   -2.273595   -1.123890
 H    4.839430    1.494079    2.798879
 H    5.175964   -0.549358    1.455577
 H    2.593165    2.552504    2.909982
 H    0.706955    1.591957    1.682049
 H   -3.133505   -1.746943   -1.578861
 H   -4.701261   -0.747155   -0.289701
 H   -4.789591    1.172017   -2.174421
 H   -5.010181    1.643408   -0.480822
 H   -2.500631    1.961512   -2.189640
 H   -3.154349    3.084927   -0.995610
 H   -3.285683    0.333278    1.296267
 H    2.391659   -3.326347   -1.218944
