46 
2in6_ligand_ani-2x.xyz
 O    0.044777   51.744133   21.893963
 C    1.015012   51.103037   22.197993
 O    1.078679   49.783528   21.906452
 C    2.228600   51.669707   22.912973
 C    2.071496   53.161571   23.206980
 N    3.218297   53.718834   23.878472
 C    3.371559   53.853013   25.249515
 C    4.400296   54.098948   23.268282
 C    4.725821   54.119323   21.909904
 C    5.984466   54.551326   21.543233
 C    6.913951   54.957231   22.517676
 O    8.133409   55.369935   22.072046
 C    6.599359   54.934623   23.864057
 C    5.327898   54.499698   24.248516
 C    4.668393   54.341826   25.517433
 C    5.020702   54.545694   26.836759
 C    6.310073   55.005498   27.438451
 O    7.351166   55.342279   26.921182
 C    4.108137   54.287903   27.868803
 C    4.807077   54.549869   29.174934
 O    4.427880   54.431600   30.316170
 N    6.087459   54.974005   28.812278
 C    2.811046   53.810113   27.594296
 C    2.460806   53.570945   26.270295
 C    1.798865   53.550769   28.649002
 C    1.095638   52.344061   28.646837
 C    0.132476   52.079044   29.613524
 C   -0.163228   53.035068   30.581319
 C    0.515140   54.249707   30.576407
 C    1.488567   54.506283   29.618004
 H    1.916517   49.411476   22.214844
 H    3.121282   51.505400   22.294830
 H    2.384825   51.114262   23.845254
 H    1.190952   53.328140   23.829973
 H    1.903376   53.707872   22.274863
 H    4.009617   53.799625   21.156128
 H    6.283515   54.587779   20.500417
 H    8.671259   55.617418   22.835692
 H    7.326747   55.247455   24.608539
 H    6.800895   55.212281   29.488192
 H    1.468813   53.190203   26.044573
 H    1.320041   51.596181   27.888420
 H   -0.396900   51.129583   29.602315
 H   -0.920798   52.833937   31.334328
 H    0.290809   55.003359   31.325911
 H    2.015130   55.456061   29.625161
