46 
2in6_ligand_aiqm1.xyz
 O    0.089855   51.664540   21.900979
 C    1.064892   51.066899   22.256496
 O    1.169539   49.736917   22.027017
 C    2.244197   51.686483   22.973482
 C    2.062814   53.188983   23.182391
 N    3.196819   53.765427   23.865449
 C    3.355664   53.871146   25.230179
 C    4.389497   54.138360   23.249889
 C    4.708864   54.170102   21.893580
 C    5.982270   54.595304   21.534278
 C    6.917361   54.977218   22.504400
 O    8.141072   55.375147   22.035888
 C    6.608654   54.946332   23.860910
 C    5.327504   54.519648   24.228511
 C    4.667035   54.350837   25.503460
 C    5.010643   54.521567   26.830109
 C    6.303948   54.965869   27.437268
 O    7.326815   55.298699   26.890320
 C    4.100022   54.246978   27.852108
 C    4.801176   54.472795   29.157485
 O    4.426013   54.314999   30.292700
 N    6.084525   54.910817   28.802930
 C    2.801150   53.792788   27.588651
 C    2.443088   53.588183   26.245826
 C    1.793872   53.534966   28.647961
 C    1.071564   52.336587   28.645824
 C    0.093974   52.097792   29.607065
 C   -0.186515   53.061232   30.572472
 C    0.517741   54.262255   30.572892
 C    1.500487   54.500177   29.616231
 H    2.007200   49.409600   22.366592
 H    3.149115   51.498085   22.389287
 H    2.365921   51.188039   23.939149
 H    1.162811   53.379955   23.762108
 H    1.932257   53.686727   22.223790
 H    3.994135   53.883300   21.134967
 H    6.273850   54.639652   20.494075
 H    8.693557   55.622738   22.780121
 H    7.330491   55.241566   24.611005
 H    6.785497   55.130176   29.488107
 H    1.449169   53.231212   26.012897
 H    1.286723   51.582919   27.895405
 H   -0.446415   51.160516   29.600386
 H   -0.945645   52.874908   31.320326
 H    0.309696   55.013460   31.323416
 H    2.056996   55.428700   29.626816
