51 
2io6_ligand_aiqm1.xyz
 C    2.512115   53.818253   26.362285
 C    2.882322   53.946921   27.707378
 C    4.201995   54.310251   27.984744
 C    5.123924   54.598668   26.980670
 C    6.425219   54.976961   27.618001
 C    4.894192   54.448705   29.302625
 C    1.888685   53.687047   28.775105
 C    1.560526   54.677495   29.716031
 C    0.631754   54.411550   30.720497
 C    0.020327   53.157644   30.782457
 C    0.313535   52.178340   29.843183
 C    1.242180   52.454746   28.842852
 C    4.773423   54.497867   25.646833
 C    3.440116   54.090525   25.357756
 C    5.439892   54.688515   24.375433
 C    4.481438   54.380923   23.385191
 C    6.732978   55.079065   24.020692
 C    4.795660   54.450990   22.032277
 C    7.037035   55.149749   22.664497
 C    6.086473   54.840807   21.687094
 C    2.107752   53.547833   23.284229
 C    2.182989   52.066801   22.925427
 C    2.252758   51.154942   24.131818
 O    7.461656   55.305935   27.098165
 N    6.192946   54.866044   28.981853
 O    4.499014   54.234902   30.423261
 O    8.309065   55.533999   22.326070
 O    2.170355   55.879527   29.541973
 C    1.953466   56.868343   30.537168
 N    3.276619   54.033080   23.990334
 O    2.148638   49.822514   23.644312
 H    1.500910   53.523415   26.116052
 H    0.389386   55.161271   31.460156
 H   -0.691279   52.954370   31.572200
 H   -0.165612   51.210867   29.887756
 H    1.483312   51.700942   28.099557
 H    7.489979   55.323299   24.752633
 H    4.073616   54.212709   21.264941
 H    6.357307   54.902306   20.638844
 H    1.233896   53.742172   23.908717
 H    1.988733   54.145165   22.379787
 H    3.052422   51.878357   22.291435
 H    1.294794   51.801843   22.351209
 H    1.426114   51.378330   24.818356
 H    3.190138   51.299953   24.680398
 H    6.895488   55.031612   29.679622
 H    8.380892   55.539608   21.369284
 H    0.907820   57.187330   30.560475
 H    2.251036   56.512748   31.525251
 H    2.579088   57.709862   30.252379
 H    2.264715   49.216800   24.377535
