51 
2io6_ligand_xtb.xyz
 C    2.472902   53.813271   26.351056
 C    2.833656   53.961997   27.686755
 C    4.142991   54.350720   27.981295
 C    5.081436   54.625401   26.980399
 C    6.355376   55.011804   27.628744
 C    4.805723   54.506069   29.289306
 C    1.856928   53.699440   28.754380
 C    1.590836   54.687208   29.717554
 C    0.706755   54.403586   30.750784
 C    0.080124   53.170169   30.816467
 C    0.314946   52.208324   29.852411
 C    1.202649   52.479511   28.825735
 C    4.732061   54.497000   25.647867
 C    3.399403   54.072927   25.349895
 C    5.396405   54.672417   24.391013
 C    4.444499   54.348062   23.396064
 C    6.681658   55.063744   24.046464
 C    4.775886   54.414077   22.053000
 C    7.005556   55.127183   22.698476
 C    6.059582   54.805692   21.720199
 C    2.081856   53.551176   23.281830
 C    2.187484   52.081819   22.863293
 C    2.227036   51.131077   24.056508
 O    7.410768   55.339359   27.148831
 N    6.099627   54.920704   28.984922
 O    4.408689   54.312155   30.410559
 O    8.267421   55.510417   22.358987
 O    2.198847   55.887476   29.525885
 C    2.146055   56.837798   30.561709
 N    3.247053   54.002107   23.994118
 O    2.310972   49.815972   23.554821
 H    1.464158   53.510996   26.113858
 H    0.500106   55.138089   31.512767
 H   -0.600071   52.966721   31.630276
 H   -0.179637   51.250353   29.903882
 H    1.418923   51.727506   28.080163
 H    7.412926   55.312640   24.797151
 H    4.066144   54.170288   21.277835
 H    6.341463   54.863793   20.676867
 H    1.206000   53.697604   23.917813
 H    1.961491   54.172462   22.389333
 H    3.092792   51.927296   22.274768
 H    1.331834   51.819123   22.240361
 H    1.315797   51.252897   24.661970
 H    3.095999   51.359772   24.689980
 H    6.796655   55.107837   29.690471
 H    8.364175   55.512922   21.399443
 H    1.126920   57.205710   30.722337
 H    2.542200   56.425148   31.493895
 H    2.776363   57.663761   30.234961
 H    2.382383   49.198318   24.289339
