25 
2j79_ligand_ani-2x.xyz
 C   -0.939507    1.098513    0.085777
 N   -1.631955    2.142183    0.363345
 C   -1.701798   -0.164599   -0.230616
 N    0.418890    1.053947   -0.036787
 O   -0.795317    3.250750    0.536575
 O   -2.999847   -0.182286    0.313274
 C   -0.966250   -1.391689    0.292730
 O   -1.608725   -2.564280   -0.168632
 C    0.458337   -1.413920   -0.240342
 O    0.430222   -1.483332   -1.649949
 C    1.195366   -0.150916    0.203557
 C    2.527330    0.022859   -0.505986
 O    3.101109    1.204249    0.030898
 H   -1.744130   -0.253480   -1.328413
 H    0.907150    1.922165    0.146407
 H   -1.419061    3.956511    0.745182
 H   -3.269351    0.745339    0.407090
 H   -0.954846   -1.359337    1.393701
 H   -2.557015   -2.424721   -0.028329
 H    0.985190   -2.289829    0.176872
 H   -0.186826   -2.200091   -1.861177
 H    1.399882   -0.252663    1.283154
 H    3.169569   -0.854585   -0.329446
 H    2.347363    0.116675   -1.583047
 H    3.834420    1.472337   -0.534137
