25 
2j79_ligand_xtb.xyz
 C   -0.933843    1.095448    0.089687
 N   -1.653682    2.132380    0.287736
 C   -1.686551   -0.157453   -0.269647
 N    0.411974    1.042757    0.107560
 O   -0.936841    3.311589    0.611457
 O   -3.018517   -0.138338    0.181154
 C   -0.968497   -1.379342    0.316162
 O   -1.599730   -2.567035   -0.098390
 C    0.473149   -1.407719   -0.208073
 O    0.477400   -1.513059   -1.609456
 C    1.221007   -0.145172    0.233611
 C    2.502692    0.047196   -0.583412
 O    3.230402    1.103507    0.004388
 H   -1.675036   -0.254732   -1.370168
 H    0.887409    1.904509    0.339661
 H   -1.632428    3.973064    0.708440
 H   -3.240990    0.788913    0.345231
 H   -0.969654   -1.308077    1.414799
 H   -2.549640   -2.432469    0.013864
 H    0.981703   -2.284071    0.225751
 H   -0.153543   -2.212814   -1.829401
 H    1.514551   -0.271782    1.288238
 H    3.080434   -0.885846   -0.567744
 H    2.228652    0.276885   -1.618701
 H    4.009778    1.281464   -0.531045
