24 
2j7b_ligand_ani-2x.xyz
 C   -0.945757    1.223114   -0.507845
 C   -1.704402   -0.060829   -0.543903
 C   -1.118593   -1.006632    0.497891
 C    0.393533   -1.129977    0.352004
 C    1.077830    0.210953    0.623592
 C    2.517153    0.248224    0.103029
 N    0.304743    1.272775   -0.025112
 N    0.756056    2.528129   -0.172484
 N   -0.196887    3.199165   -0.725309
 N   -1.276388    2.415108   -0.947041
 O   -3.072048    0.096441   -0.255698
 O   -1.666500   -2.302059    0.356093
 O    0.911311   -2.051808    1.284814
 O    2.558116    0.159890   -1.300844
 H   -1.565527   -0.526234   -1.535960
 H   -1.344037   -0.600895    1.497085
 H    0.620619   -1.443750   -0.681994
 H    1.080129    0.386592    1.705467
 H    3.061464   -0.614781    0.496733
 H    3.004898    1.161668    0.467021
 H   -3.374437    0.897142   -0.707609
 H   -2.622496   -2.210024    0.466534
 H    0.377946   -2.854221    1.194355
 H    2.223175    1.001708   -1.640717
