17 
2j9n_ligand_ani-2x.xyz
 C   28.725943   43.789860   16.047441
 C   28.511689   44.380955   17.293502
 C   28.131991   43.606181   18.384742
 C   27.958982   42.232618   18.235651
 C   28.181406   41.636009   16.996662
 C   28.571664   42.408890   15.910112
 C   29.138889   44.600875   14.859387
 N   28.727162   45.930227   14.891379
 N   29.837553   44.046212   13.946126
 H   28.663693   45.451106   17.411789
 H   27.962379   44.077438   19.349979
 H   27.656374   41.625830   19.084916
 H   28.055562   40.563072   16.877699
 H   28.765499   41.959963   14.940417
 H   28.815246   46.425848   14.014396
 H   27.841574   46.102464   15.348888
 H   30.063092   44.705951   13.199614
