74 
2jbu_ligand_xtb.xyz
 N   -0.116100   -0.768734   -1.724925
 C   -0.905480   -1.787928   -2.458746
 C   -2.364552   -1.456299   -2.098522
 O   -3.014700   -0.699471   -2.793364
 C   -0.425478   -3.185467   -2.105698
 N   -2.803286   -1.954623   -0.936872
 C   -4.042964   -1.489175   -0.335140
 C   -3.709984   -0.205171    0.455499
 O   -3.702125   -0.198000    1.677538
 C   -4.630026   -2.559885    0.568018
 N   -3.418208    0.835278   -0.331148
 C   -2.897543    2.147506    0.032441
 C   -1.486001    2.280347   -0.564580
 O   -1.177190    1.686984   -1.590290
 C   -2.989434    2.482583    1.516340
 N   -0.645567    3.132586    0.031147
 C    0.624035    3.493827   -0.568256
 C    1.679196    2.394367   -0.370656
 O    1.582756    1.517461    0.469602
 C    1.118543    4.804396    0.037298
 N    2.732035    2.508093   -1.195513
 C    3.853684    1.575133   -1.161695
 C    3.251702    0.164050   -1.168015
 O    2.437440   -0.130722   -2.035964
 C    4.791708    1.898731   -0.002264
 N    3.647749   -0.695777   -0.230394
 C    3.128775   -2.044499   -0.134841
 C    1.927632   -2.166872    0.822837
 O    1.242842   -3.168655    0.836653
 C    4.217607   -2.994001    0.358652
 N    1.774478   -1.138074    1.677246
 C    0.751536   -1.157438    2.698217
 C   -0.627293   -0.870365    2.110738
 O   -0.841024   -0.852156    0.911065
 C    1.103148   -0.172698    3.806446
 O   -1.537524   -0.674146    3.015817
 H   -0.201520   -0.917763   -0.696472
 H   -0.504372    0.186999   -1.895213
 H    0.898175   -0.736629   -1.979575
 H   -0.797309   -1.600642   -3.531548
 H    0.520371   -3.387907   -2.602163
 H   -0.268646   -3.304079   -1.035274
 H   -1.142811   -3.928526   -2.441557
 H   -2.193171   -2.500537   -0.347446
 H   -4.729881   -1.242766   -1.151700
 H   -3.940228   -2.795996    1.375060
 H   -4.835685   -3.460829   -0.002760
 H   -5.555954   -2.202669    1.008736
 H   -3.427208    0.672455   -1.335144
 H   -3.504474    2.877389   -0.527427
 H   -2.238524    1.951375    2.095096
 H   -2.877688    3.554479    1.665085
 H   -3.967706    2.199048    1.893095
 H   -0.875928    3.545891    0.920333
 H    0.452137    3.601723   -1.646996
 H    2.042039    5.124921   -0.436278
 H    0.374509    5.584673   -0.103207
 H    1.303757    4.681376    1.102562
 H    2.737261    3.227440   -1.899696
 H    4.387897    1.683761   -2.111280
 H    4.276673    1.805079    0.951215
 H    5.667102    1.254867   -0.019600
 H    5.135273    2.926285   -0.098251
 H    4.321815   -0.418089    0.465509
 H    2.799346   -2.351376   -1.133274
 H    5.058361   -3.001460   -0.330264
 H    3.812296   -3.999318    0.427968
 H    4.566072   -2.694662    1.345067
 H    2.103060   -0.217447    1.413675
 H    0.700038   -2.180930    3.093803
 H    1.190512    0.830618    3.394391
 H    2.047945   -0.451034    4.264756
 H    0.328160   -0.177442    4.566325
 H   -2.447241   -0.505760    2.621956
