74 
2jbu_ligand_ani-2x.xyz
 N   -0.137799   -0.548556   -1.903024
 C   -0.944650   -1.660247   -2.476089
 C   -2.393766   -1.387575   -2.058771
 O   -3.111824   -0.672310   -2.754202
 C   -0.380602   -3.011360   -2.060132
 N   -2.799602   -1.907898   -0.873277
 C   -4.009653   -1.410331   -0.223655
 C   -3.701399   -0.046266    0.430401
 O   -3.511311    0.035678    1.643807
 C   -4.511063   -2.418456    0.798687
 N   -3.635188    0.999254   -0.423879
 C   -3.095927    2.327967   -0.151390
 C   -1.658798    2.432170   -0.715658
 O   -1.400137    1.966758   -1.824055
 C   -3.255782    2.793861    1.288460
 N   -0.740270    3.136540   -0.003013
 C    0.568513    3.451538   -0.536585
 C    1.575502    2.304610   -0.334568
 O    1.449075    1.453982    0.538893
 C    1.101879    4.735398    0.102924
 N    2.651390    2.361567   -1.160890
 C    3.816810    1.489036   -1.041668
 C    3.366151    0.017504   -1.138401
 O    2.637263   -0.343925   -2.053319
 C    4.660718    1.829284    0.187289
 N    3.816959   -0.840052   -0.180362
 C    3.274146   -2.175425   -0.032830
 C    2.393275   -2.350649    1.214465
 O    2.172610   -3.463537    1.668307
 C    4.348323   -3.255958   -0.085671
 N    1.874320   -1.213571    1.756771
 C    0.855029   -1.272772    2.772398
 C   -0.528507   -1.215616    2.123403
 O   -0.705262   -1.262317    0.919101
 C    1.060001   -0.155272    3.797269
 O   -1.513006   -1.122561    3.003103
 H   -0.122472   -0.624133   -0.874232
 H   -0.571240    0.361328   -2.145727
 H    0.834551   -0.561077   -2.247910
 H   -0.949044   -1.568807   -3.565289
 H    0.589578   -3.168693   -2.544328
 H   -0.229191   -3.063905   -0.976713
 H   -1.046119   -3.822106   -2.365892
 H   -2.077647   -2.232302   -0.240661
 H   -4.746156   -1.257566   -1.019397
 H   -3.775855   -2.560812    1.599762
 H   -4.690804   -3.381820    0.313647
 H   -5.443156   -2.076310    1.257164
 H   -3.664531    0.758992   -1.412207
 H   -3.669109    3.005452   -0.799260
 H   -2.626662    2.216514    1.968162
 H   -3.023790    3.860296    1.378690
 H   -4.291752    2.640394    1.595520
 H   -0.863430    3.251573    0.992768
 H    0.446587    3.600773   -1.613678
 H    2.061465    5.027109   -0.335449
 H    0.390160    5.551168   -0.052814
 H    1.251603    4.600672    1.180758
 H    2.668990    3.072138   -1.875703
 H    4.406389    1.659343   -1.947951
 H    4.086610    1.681836    1.105800
 H    5.577515    1.232428    0.227299
 H    4.953514    2.881841    0.142470
 H    4.388560   -0.491136    0.573201
 H    2.595810   -2.298788   -0.887511
 H    4.914242   -3.166339   -1.016813
 H    3.882902   -4.242915   -0.037228
 H    5.042789   -3.170390    0.757429
 H    1.921053   -0.339639    1.235689
 H    0.930819   -2.252140    3.262783
 H    0.983693    0.826659    3.316299
 H    2.056421   -0.249707    4.234612
 H    0.309621   -0.215269    4.589157
 H   -2.344493   -0.901451    2.511895
