61 
2jdk_ligand_aiqm1.xyz
 C   -3.303146    0.553575    0.613881
 C   -4.484071    1.298331   -0.003976
 C   -4.972748    0.578255   -1.248278
 C   -5.313591   -0.860684   -0.903011
 C   -4.093721   -1.538712   -0.285183
 C   -4.370090   -2.931974    0.218915
 O   -4.178270    2.645813   -0.289079
 O   -6.151834    1.201373   -1.742531
 O   -6.396819   -0.908088    0.008105
 O   -3.592776   -0.797861    0.850867
 C    1.848018    0.425480   -0.124755
 C    1.167776   -0.338058    1.009190
 C   -0.308233   -0.504612    0.660368
 C   -0.921490    0.860790    0.321323
 C   -0.071611    1.650085   -0.683238
 C   -0.468317    3.107246   -0.826835
 C    1.952016   -2.602371    0.403470
 C    2.578165   -3.852398    0.974149
 N    1.843523   -1.581876    1.296827
 O   -0.934473   -1.095479    1.784303
 O   -2.206076    0.687747   -0.278468
 O    1.284328    1.712066   -0.241765
 O   -1.707520    3.195484   -1.528072
 O    1.604841   -2.488686   -0.762590
 O    7.134855    0.309019   -1.521732
 C    6.804070    0.640187   -0.406673
 O    7.655774    0.988515    0.555974
 C    9.030303    0.947429    0.153434
 C    5.399788    0.699091    0.035309
 N    4.996434    1.079314    1.280588
 N    3.698102    1.020515    1.327899
 N    3.256875    0.601057    0.125402
 C    4.285573    0.394502   -0.716474
 H   -3.044021    0.975893    1.585976
 H   -5.282772    1.305321    0.738009
 H   -4.190902    0.599989   -2.014519
 H   -5.574581   -1.391655   -1.825799
 H   -3.317117   -1.562673   -1.059590
 H   -4.738483   -3.560074   -0.592548
 H   -5.118621   -2.900920    1.008700
 H   -3.454039   -3.374709    0.610099
 H   -3.325686    2.680082   -0.748038
 H   -6.003162    2.148011   -1.663592
 H   -7.061561   -0.310998   -0.349028
 H    1.769687   -0.109425   -1.075979
 H    1.229733    0.279373    1.901178
 H   -0.398558   -1.151619   -0.216562
 H   -1.016422    1.434318    1.253265
 H   -0.132296    1.157002   -1.663013
 H    0.322942    3.612796   -1.381700
 H   -0.552751    3.567464    0.161927
 H    3.558340   -3.621579    1.392645
 H    2.677258   -4.592095    0.186334
 H    1.956779   -4.250900    1.776380
 H    2.060953   -1.776053    2.258035
 H   -1.865284   -1.238367    1.572371
 H   -1.831362    4.112201   -1.780624
 H    9.304716   -0.060710   -0.148593
 H    9.595397    1.254557    1.025447
 H    9.200457    1.629698   -0.676035
 H    4.165904    0.049697   -1.728087
