58 
2jfz_ligand_aiqm1.xyz
 C   15.186492   56.387754   36.391808
 O   15.816849   55.443257   35.951880
 N   15.263231   56.754743   37.724051
 C   16.173518   56.043318   38.626889
 C   17.474119   56.812630   38.876625
 C   18.283304   56.980588   37.591122
 C   18.307526   56.088508   39.931307
 C   14.560878   57.835781   38.181015
 N   14.552696   58.264052   39.438863
 N   13.722908   59.349861   39.404131
 C   13.647025   60.220398   40.583700
 C   14.230434   61.594043   40.322714
 C   15.626617   61.770341   40.072391
 C   16.565705   60.701606   40.125967
 C   17.897808   60.921615   39.870408
 C   18.363187   62.215157   39.544120
 C   17.484954   63.265558   39.497889
 C   16.104690   63.074106   39.768935
 C   15.204468   64.171093   39.750725
 C   13.880037   63.984885   40.039249
 C   13.395906   62.685814   40.324510
 C   13.219755   59.592529   38.177335
 C   12.274128   60.673426   37.855363
 C   11.077629   60.821417   38.560510
 C   10.219453   61.857589   38.201790
 N   10.473391   62.729689   37.219995
 C   11.614895   62.564076   36.543980
 C   12.542692   61.561783   36.815255
 C   13.747794   58.614266   37.341686
 C   13.608544   58.279223   35.938798
 O   12.938507   58.865075   35.109586
 N   14.353643   57.153019   35.571563
 C   14.250149   56.764659   34.165378
 H   16.382722   55.079202   38.170670
 H   15.644229   55.882611   39.569834
 H   17.208639   57.801991   39.258581
 H   19.242483   57.458000   37.803528
 H   18.482113   56.006721   37.139344
 H   17.763235   57.590523   36.848985
 H   18.611453   55.104177   39.566326
 H   19.213461   56.652912   40.155279
 H   17.754343   55.954254   40.862251
 H   14.175879   59.694016   41.373979
 H   12.601076   60.305531   40.878111
 H   16.223713   59.708626   40.377316
 H   18.604770   60.102917   39.918940
 H   19.413700   62.371335   39.338845
 H   17.833633   64.263647   39.259257
 H   15.584764   65.157885   39.512696
 H   13.192710   64.819192   40.038668
 H   12.338383   62.557502   40.530797
 H   10.803246   60.138566   39.356367
 H    9.281155   61.990807   38.727658
 H   11.800024   63.266153   35.739994
 H   13.435396   61.463722   36.213385
 H   13.209581   56.556965   33.923769
 H   14.591869   57.584487   33.535693
 H   14.864290   55.883599   34.017989
