46 
2jj3_ligand_xtb.xyz
 C   -3.621736   -1.820641    0.067857
 C   -3.517911   -0.649613    0.808244
 C   -2.358250    0.099675    0.765865
 C   -1.277131   -0.334466   -0.008185
 O   -0.174492    0.477824   -0.028869
 C    0.685308    0.274976   -1.134069
 C    1.078827   -1.204039   -1.255344
 C    1.764160   -1.747067    0.013744
 C    1.010459   -3.030051    0.390634
 C    0.274587   -3.429921   -0.884848
 C   -0.166246   -2.079788   -1.464605
 C   -1.354551   -1.533733   -0.711692
 C   -2.540117   -2.255838   -0.681156
 C    1.902309    1.151781   -0.985830
 C    2.259322    1.694478    0.238666
 C    3.398825    2.468767    0.362017
 C    4.203451    2.708821   -0.743718
 O    5.335371    3.460629   -0.669420
 C    3.847757    2.171350   -1.977466
 C    2.707378    1.404333   -2.091284
 C   -2.218947    1.382514    1.535844
 O   -3.439389    1.750897    2.132719
 C   -3.348448    2.953780    2.845678
 O   -4.762689   -2.569464    0.060411
 H   -4.342102   -0.296727    1.409493
 H    0.146486    0.557671   -2.056175
 H    1.746525   -1.306162   -2.114470
 H    2.815794   -1.951699   -0.185784
 H    1.716391   -1.014940    0.818516
 H    1.680350   -3.811846    0.745578
 H    0.281379   -2.821776    1.174932
 H   -0.561104   -4.098456   -0.690615
 H    0.960214   -3.916502   -1.580835
 H   -0.422640   -2.168677   -2.525195
 H   -2.635419   -3.170946   -1.243911
 H    1.631827    1.519895    1.098172
 H    3.665991    2.889154    1.323057
 H    5.461296    3.772328    0.234900
 H    4.476239    2.370529   -2.830641
 H    2.435047    0.997983   -3.054582
 H   -1.868127    2.174601    0.853379
 H   -1.440457    1.259196    2.308633
 H   -4.336043    3.148434    3.259644
 H   -3.056536    3.785465    2.191319
 H   -2.618518    2.880261    3.662619
 H   -5.424737   -2.142589    0.617074
