35 
2jt6_ligand_aiqm1.xyz
 C   11.747618   -0.039070   -1.128109
 C   11.360416   -1.113043   -0.322036
 C   10.503881   -0.898147    0.750467
 C   10.020998    0.384760    1.043034
 C    7.244381   -0.122106    3.576648
 C    8.115400   -0.314004    2.502678
 C    9.222744    1.754371    2.985390
 C    8.371501    1.963217    4.058738
 C   11.273659    1.246285   -0.851693
 C    7.377478    1.028425    4.356469
 C   10.420859    1.450943    0.225709
 C    5.203130   -1.949308    6.503496
 C    5.574099    0.408926    5.769372
 C    6.156587   -0.789590    6.526376
 N    4.943871   -2.540856    7.695596
 O    4.703358   -2.399410    5.479001
 O    3.921440   -3.482949    7.689461
 O    6.584598    1.337995    5.426731
 C    9.111339    0.608776    2.186529
 C   12.632579   -0.256075   -2.240265
 N   13.346772   -0.430909   -3.137280
 H   11.734500   -2.104058   -0.540437
 H   10.219220   -1.733222    1.376925
 H    6.484089   -0.862005    3.780005
 H    7.997217   -1.198934    1.889940
 H    9.996739    2.482106    2.773868
 H    8.458602    2.845441    4.678695
 H   11.574267    2.071306   -1.483181
 H   10.047563    2.446814    0.425004
 H    4.878977    0.953606    6.408898
 H    5.031301    0.074882    4.884594
 H    7.072894   -1.102787    6.028559
 H    6.422309   -0.504704    7.546173
 H    4.953919   -2.009412    8.550033
 H    3.697795   -3.516566    6.739613
