51 
2kdh_ligand_ani-2x.xyz
 O   -0.035765    0.777824    4.340660
 C   -0.755685   -0.044989    3.512826
 C   -1.178677   -1.239575    4.080810
 O   -0.906970   -1.577706    5.377725
 C   -1.911262   -2.151927    3.323480
 O   -2.323987   -3.315671    3.880439
 C   -2.208717   -1.862922    1.996466
 C   -1.785105   -0.664091    1.429167
 C   -2.081253   -0.398644   -0.031917
 C   -2.148268    1.423834   -1.542607
 C   -2.489570    2.767545   -1.712873
 C   -2.681795    3.249577   -3.002563
 C   -2.536842    2.408421   -4.111063
 C   -2.189634    1.080981   -3.900131
 C   -1.970135    0.556933   -2.618699
 C   -1.148806   -1.143491   -0.987231
 C    1.219515   -1.299074   -1.108715
 C    2.452826   -0.781539   -0.458389
 C    2.382223    0.218735    0.511324
 C    3.673244   -1.353957   -0.812198
 C   -1.602514   -0.891958   -2.418239
 O   -1.955453    0.999716   -0.265676
 O   -3.017842    4.541050   -3.248073
 O   -2.038906    0.205092   -4.932437
 C   -1.067658    0.256064    2.192148
 O    0.143048   -0.585491   -0.737073
 O    1.173032   -2.243660   -1.864399
 C    4.830247   -0.912279   -0.190659
 O    6.089853   -1.384210   -0.448267
 C    4.767366    0.081020    0.783951
 O    5.877478    0.543610    1.430140
 C    3.541814    0.644254    1.141032
 O    3.489003    1.602461    2.098865
 H    0.249573    1.556146    3.844540
 H   -0.394799   -0.857225    5.773254
 H   -2.013527   -3.323321    4.799016
 H   -2.767932   -2.590857    1.414708
 H   -3.113364   -0.713215   -0.245868
 H   -2.603860    3.405666   -0.840132
 H   -2.698240    2.810493   -5.108165
 H   -1.116852   -2.217611   -0.782684
 H    1.434363    0.663404    0.787944
 H    3.689821   -2.138706   -1.563637
 H   -0.821610   -1.206587   -3.113182
 H   -2.474499   -1.528974   -2.621253
 H   -3.086552    5.012154   -2.407793
 H   -2.212652    0.659322   -5.766534
 H   -0.768402    1.207959    1.765676
 H    6.049058   -2.068977   -1.127557
 H    6.646693    0.067410    1.084331
 H    4.397877    1.756690    2.399411
