55 
2ko7_ligand_ani-2x.xyz
 N    2.621328    2.318913   -0.157295
 O   -2.064487   -1.314336   -2.330759
 C    2.268922    2.823638   -1.416471
 O    3.116673    3.134149   -2.228441
 C    0.784289    2.957239   -1.689085
 O    2.192721    2.041503    2.056792
 C   -0.047286    2.006256   -0.827080
 O    3.222986   -0.416227    0.066619
 C    0.283448    2.340750    0.630207
 O    5.417585    0.043798    0.128522
 C    1.754636    2.216068    0.936721
 C    0.214065    0.550915   -1.276072
 C   -0.244317   -0.582146   -0.350607
 C   -1.749461   -0.584987   -0.057877
 O    0.446114   -0.544442    0.882783
 C   -2.572014   -0.994745   -1.275520
 C   -4.082161   -1.031765   -1.062204
 C   -4.396759   -1.911933    0.159470
 C   -3.607552   -1.533738    1.421668
 C   -2.101455   -1.502588    1.123694
 C    3.997001    1.898680    0.053251
 C    5.694262   -1.374511    0.159619
 C    5.437618   -1.973984    1.529591
 C   -4.820500   -1.504886   -2.309538
 C   -4.105880   -0.227193    2.049484
 C    4.133721    0.389418    0.083841
 H    0.507507    3.998517   -1.485782
 H    0.635853    2.785284   -2.757752
 H   -1.109939    2.230395   -0.989018
 H   -0.000931    3.380347    0.835931
 H   -0.250946    1.713629    1.345376
 H   -0.273977    0.401271   -2.243415
 H    1.286046    0.396402   -1.443117
 H   -0.005693   -1.527376   -0.862737
 H   -2.061234    0.436299    0.212516
 H    1.397370   -0.535350    0.688159
 H   -4.381246    0.003182   -0.836187
 H   -4.167435   -2.954505   -0.105953
 H   -5.474038   -1.868952    0.369507
 H   -3.777517   -2.327059    2.163541
 H   -1.759351   -2.521427    0.890422
 H   -1.545152   -1.178823    2.009129
 H    4.597620    2.307595   -0.760930
 H    4.353275    2.304075    1.004271
 H    6.748516   -1.441218   -0.114870
 H    5.087767   -1.867687   -0.605623
 H    5.726032   -3.030074    1.521064
 H    6.022045   -1.459173    2.297930
 H    4.377602   -1.909451    1.785996
 H   -4.587038   -0.869738   -3.168044
 H   -5.904293   -1.493524   -2.147982
 H   -4.520478   -2.526283   -2.564386
 H   -4.008050    0.626822    1.370701
 H   -3.541279    0.009528    2.958508
 H   -5.164132   -0.306551    2.322633
