29 
2l98_ligand_xtb.xyz
 C   12.623806   11.512019   -1.666399
 C   13.429729   10.745979   -2.498366
 C   13.085969   10.603975   -3.835692
 C   11.947940   11.222075   -4.332431
 C   11.127880   11.989459   -3.502987
 C   11.483906   12.127968   -2.161173
 C    9.949070   12.607772   -4.080224
 C    8.991749   13.275686   -3.420032
 C    7.812300   13.890042   -3.996408
 C    7.552531   13.931338   -5.370406
 C    6.415267   14.527968   -5.866217
 C    5.491430   15.108014   -4.999853
 C    5.732932   15.079391   -3.631170
 C    6.875986   14.480656   -3.143488
 O    4.381505   15.685835   -5.530461
 O   13.896664    9.849281   -4.625143
 O   12.993748   11.633199   -0.362717
 H   14.313340   10.269516   -2.110155
 H   11.689282   11.104173   -5.376857
 H   10.877938   12.724620   -1.494811
 H    9.863311   12.484404   -5.151400
 H    9.062657   13.379988   -2.345364
 H    8.252540   13.494115   -6.064623
 H    6.217999   14.559310   -6.926103
 H    5.021421   15.529006   -2.950200
 H    7.048150   14.466972   -2.076487
 H    3.830435   16.047037   -4.825572
 H   13.549155    9.830746   -5.524979
 H   12.358360   12.187855    0.105719
