29 
2l98_ligand_dft.xyz
 C    3.646181    1.223317   -0.188914
 C    4.498753    0.149259    0.050346
 C    3.951054   -1.118520    0.211591
 C    2.571403   -1.314805    0.140695
 C    1.717629   -0.231002   -0.084766
 C    2.265705    1.043652   -0.262146
 C    0.267435   -0.472837   -0.129218
 C   -0.685527    0.446116    0.081207
 C   -2.136037    0.224924    0.030330
 C   -2.719809   -0.895574   -0.581358
 C   -4.091689   -1.080612   -0.593836
 C   -4.927876   -0.134894    0.004042
 C   -4.373385    0.994527    0.603796
 C   -2.994322    1.165585    0.608705
 O   -6.266109   -0.366218   -0.040238
 O    4.816989   -2.141351    0.438194
 O    4.226064    2.441118   -0.357957
 H    5.570918    0.297285    0.098691
 H    2.153936   -2.310469    0.276683
 H    1.621466    1.889510   -0.488403
 H   -0.022407   -1.505928   -0.315679
 H   -0.385062    1.458688    0.349121
 H   -2.090059   -1.630108   -1.074498
 H   -4.537753   -1.946175   -1.072133
 H   -5.015883    1.740948    1.066097
 H   -2.574337    2.049307    1.082645
 H   -6.728383    0.357378    0.399329
 H    4.317363   -2.960721    0.534140
 H    3.537550    3.097070   -0.518837
