80 
2liq_ligand_ani-2x.xyz
 C   -2.063049   -0.751151    0.188149
 C   -3.557044   -1.016447   -0.058043
 C   -4.126348   -1.901968    1.064763
 C   -3.248005   -3.128261    1.276155
 C   -1.790268   -2.741208    1.429376
 C   -0.877345   -3.959104    1.484848
 C   -5.485165    0.353628   -0.758317
 C   -6.004027    1.754993   -0.974969
 N   -4.265699    0.254386   -0.173546
 O   -5.409245   -2.418201    0.807489
 O   -3.660031   -3.824818    2.427103
 O   -1.379140   -1.969031    0.305374
 O    0.469325   -3.545660    1.618826
 O   -6.135227   -0.638982   -1.093512
 C    0.935734    3.286035   -1.402006
 C    1.353961    2.338929   -0.268409
 C    0.671721    0.956482   -0.403315
 C   -0.838230    1.162660   -0.586284
 C   -1.101326    2.133400   -1.734830
 C   -2.577251    2.447520   -1.909155
 C    3.615071    1.841398   -1.171569
 C    5.100484    1.916709   -0.883562
 N    2.802367    2.266184   -0.158472
 O    1.462807    4.535766   -1.127017
 O    0.835269    0.185053    0.780269
 O   -1.508055   -0.047897   -0.882751
 O   -0.473916    3.377084   -1.443324
 O   -3.135786    2.876963   -0.676751
 O    3.162473    1.387587   -2.214046
 C    1.323588    5.454310   -2.192882
 C    1.992193   -0.582448    0.834666
 C    2.317962   -0.981253    2.275739
 C    3.334311   -2.140690    2.263039
 C    4.092750   -2.224874    0.944449
 C    3.105818   -2.401582   -0.220449
 C    3.666816   -1.953501   -1.556525
 O    1.204483   -1.292315    3.066633
 O    4.313200   -1.967621    3.278268
 O    4.865949   -1.048976    0.757187
 O    1.842122   -1.748539    0.031175
 H   -1.936335   -0.177328    1.126925
 H   -3.647845   -1.568199   -1.004768
 H   -4.143641   -1.312455    1.999838
 H   -3.343351   -3.756186    0.373270
 H   -1.662816   -2.150107    2.354951
 H   -1.008232   -4.569078    0.578866
 H   -1.132858   -4.571857    2.353614
 H   -5.970634    2.336689   -0.048877
 H   -7.032437    1.692139   -1.332703
 H   -5.394226    2.282628   -1.715262
 H   -3.744773    1.119865   -0.045785
 H   -5.834073   -1.888986    0.101446
 H   -4.606932   -3.989524    2.311496
 H    0.676559   -2.989645    0.843600
 H    1.301810    2.911026   -2.375223
 H    0.994422    2.788656    0.661398
 H    1.078592    0.423144   -1.274598
 H   -1.226294    1.608640    0.341005
 H   -0.701135    1.719124   -2.673851
 H   -3.111026    1.549213   -2.223659
 H   -2.709465    3.215356   -2.681096
 H    5.310171    1.910590    0.190458
 H    5.594115    1.062991   -1.354590
 H    5.524006    2.830402   -1.316048
 H    3.226419    2.766690    0.605773
 H   -2.634491    3.661771   -0.410840
 H    1.861005    6.358912   -1.899930
 H    1.768300    5.055685   -3.116858
 H    0.272411    5.700012   -2.385614
 H    2.841986   -0.011076    0.457716
 H    2.793622   -0.117502    2.757395
 H    2.783708   -3.079564    2.410199
 H    4.760059   -3.100477    0.966350
 H    2.858988   -3.470829   -0.269583
 H    2.964223   -2.216849   -2.351414
 H    4.619575   -2.454212   -1.755458
 H    3.819735   -0.871218   -1.579849
 H    0.809792   -2.107310    2.701564
 H    3.851597   -1.947938    4.127522
 H    5.296422   -0.888152    1.609148
