32 
2mji_ligand_aiqm1.xyz
 O   -5.031557    0.549584    1.293823
 C   -1.409135    1.599221   -0.629797
 C   -2.076553    0.412232   -0.401309
 C   -1.757628   -1.858432    0.114893
 N   -1.173241   -0.544713   -0.096149
 C   -3.233384   -1.499910    0.361281
 C   -3.456043   -0.172498   -0.393012
 C   -4.461196    0.747386    0.254308
 C    2.601482   -0.324080    0.318491
 C    2.803691    0.880682    1.000966
 C    4.095177    1.351218    1.218383
 C    5.191010    0.630215    0.751900
 C    4.995294   -0.575759    0.080339
 C    3.707766   -1.053884   -0.125053
 O    1.116072   -2.126348   -0.028109
 C    1.256174   -0.911069    0.065546
 C    0.102590   -0.034619   -0.120842
 C   -0.031212    1.315246   -0.448829
 O   -4.649669    1.851736   -0.494260
 H   -1.856067    2.541427   -0.891867
 H   -1.286621   -2.365117    0.949943
 H   -1.620512   -2.464657   -0.778667
 H   -3.923230   -2.279358    0.047175
 H   -3.385513   -1.316553    1.422996
 H   -3.782602   -0.348839   -1.420903
 H    1.956788    1.434760    1.382463
 H    4.245168    2.278987    1.753900
 H    6.193733    1.001918    0.918495
 H    5.845298   -1.144909   -0.272944
 H    3.530225   -1.996578   -0.625329
 H    0.777813    2.018217   -0.575613
 H   -5.284119    2.404293   -0.019122
