26 
2nnd_ligand_xtb.xyz
 N   50.096985   22.719892   42.564417
 C   50.132765   23.368191   41.419290
 C   51.359553   23.489305   40.721471
 N   52.481401   22.975140   41.193847
 C   52.418207   22.332584   42.358631
 C   51.227974   22.200915   43.040544
 C   48.872013   23.972492   40.892630
 C   48.868569   25.504590   41.032397
 C   48.914251   25.909671   42.502547
 C   47.627689   26.082043   40.357533
 O   51.374399   24.136059   39.547012
 C   52.626783   24.203423   38.890775
 H   53.351399   21.926020   42.721940
 H   51.152044   21.677303   43.982342
 H   48.032337   23.553369   41.448152
 H   48.774650   23.715883   39.835665
 H   49.757061   25.895845   40.526159
 H   48.038122   25.532275   43.025182
 H   49.798637   25.504707   42.988734
 H   48.934083   26.993131   42.598572
 H   47.607355   25.823287   39.301377
 H   46.725885   25.692875   40.825531
 H   47.618576   27.166156   40.444855
 H   53.358277   24.725863   39.511062
 H   53.003530   23.200991   38.676549
 H   52.451156   24.749989   37.966784
