26 
2nnd_ligand_ani-2x.xyz
 N   50.088812   22.714806   42.587565
 C   50.149691   23.357270   41.432832
 C   51.387837   23.455535   40.753143
 N   52.505920   22.930865   41.206414
 C   52.417196   22.281699   42.379895
 C   51.224235   22.173388   43.061622
 C   48.908465   23.990361   40.867983
 C   48.868881   25.519870   41.022784
 C   48.928947   25.938714   42.491361
 C   47.611214   26.074303   40.353388
 O   51.373646   24.122406   39.583964
 C   52.610432   24.226851   38.886094
 H   53.331259   21.841919   42.770333
 H   51.158524   21.644941   44.009418
 H   48.052892   23.544179   41.387268
 H   48.829595   23.744986   39.802498
 H   49.746219   25.925591   40.504640
 H   48.104447   25.484239   43.056900
 H   49.866107   25.627644   42.964540
 H   48.844614   27.027175   42.589574
 H   47.574085   25.807939   39.290682
 H   46.707789   25.673303   40.831959
 H   47.571323   27.167089   40.427927
 H   53.356011   24.747420   39.494739
 H   52.999308   23.235688   38.634399
 H   52.386250   24.793819   37.982077
