39 
2no3_ligand_aiqm1.xyz
 C   17.910689  107.534053   50.951901
 N   19.074231  107.213098   50.373281
 C   19.029374  106.955786   49.063117
 C   17.824812  107.013545   48.334705
 C   16.700058  107.367199   49.051097
 N   16.709035  107.637590   50.364654
 N   20.188771  106.619565   48.419163
 C   21.463175  106.457273   48.964513
 C   22.317168  105.474715   48.418227
 C   23.617224  105.341578   48.915102
 C   24.082001  106.141773   49.946671
 C   23.231040  107.102914   50.491197
 C   21.940647  107.270202   50.004176
 N   17.897349  107.799518   52.296945
 C   18.939561  107.822559   53.231549
 C   18.729075  108.513925   54.430343
 C   19.731696  108.558194   55.393536
 C   20.957969  107.933549   55.191917
 C   21.152108  107.244111   53.999959
 C   20.156513  107.166554   53.033712
 O   22.367431  106.643884   53.802857
 C   21.870264  104.607272   47.289346
 N   22.538739  103.431066   47.130791
 O   20.971970  104.916357   46.511797
 H   17.789692  106.797879   47.277510
 H   15.737713  107.440622   48.561098
 H   20.086500  106.194112   47.505313
 H   24.284959  104.621899   48.455755
 H   25.092815  106.027502   50.312190
 H   23.587315  107.742666   51.289300
 H   21.286260  108.018298   50.424417
 H   17.002783  108.130166   52.615913
 H   17.785469  109.016060   54.602125
 H   19.553670  109.098640   56.313999
 H   21.748451  107.972287   55.926941
 H   20.332058  106.615373   52.126207
 H   22.367228  106.232572   52.935530
 H   22.155084  102.804248   46.445738
 H   23.050901  103.027193   47.891907
