32 
2o3p_ligand_ani-2x.xyz
 C   74.207990   40.454023    1.891397
 C   73.882665   40.210497    0.478166
 C   74.112206   38.824568   -0.031198
 C   74.639873   37.898823    0.821278
 C   74.976083   38.101959    2.254454
 C   74.701751   39.505317    2.698608
 C   73.782476   38.431174   -1.397922
 C   74.148528   37.049783   -1.747386
 C   74.726696   36.220839   -0.847295
 C   75.142700   34.830508   -1.089644
 C   75.470121   34.368623   -2.366032
 C   75.880800   33.054554   -2.556497
 C   75.957531   32.177997   -1.483090
 C   75.623417   32.634353   -0.197030
 C   75.230114   33.940574   -0.001935
 O   74.903373   36.628970    0.449699
 O   73.245140   39.106858   -2.272007
 O   75.732220   31.694754    0.796275
 O   76.350916   30.897874   -1.674431
 O   73.845717   36.692219   -3.009706
 O   74.974032   39.810184    3.984209
 O   73.453966   41.123122   -0.202949
 H   74.029778   41.459467    2.254307
 H   76.031522   37.844228    2.414327
 H   74.402221   37.386464    2.859584
 H   75.409718   35.036147   -3.216604
 H   76.141394   32.689603   -3.545504
 H   74.984045   34.295926    0.994637
 H   75.496137   32.090201    1.645102
 H   76.339438   30.452876   -0.813526
 H   73.427351   37.490201   -3.389745
 H   75.321479   39.034915    4.441457
