32 
2o3p_ligand_aiqm1.xyz
 C   74.175623   40.445139    1.927121
 C   73.805476   40.197592    0.527946
 C   74.074802   38.828677   -0.025716
 C   74.642996   37.895768    0.776225
 C   75.035284   38.121926    2.200174
 C   74.736371   39.499709    2.689826
 C   73.759745   38.436533   -1.401306
 C   74.129939   37.063524   -1.763174
 C   74.703791   36.213657   -0.881603
 C   75.143913   34.826728   -1.090006
 C   75.539157   34.371940   -2.350769
 C   75.952502   33.054215   -2.525189
 C   75.976613   32.176169   -1.450849
 C   75.581604   32.629406   -0.188613
 C   75.174493   33.937437   -0.003399
 O   74.928626   36.641317    0.408563
 O   73.229849   39.118888   -2.272025
 O   75.640180   31.689868    0.810417
 O   76.379929   30.894810   -1.626885
 O   73.842345   36.732811   -3.037422
 O   75.063376   39.774837    3.980228
 O   73.302164   41.086699   -0.134733
 H   73.974578   41.433296    2.313985
 H   76.103964   37.919825    2.296498
 H   74.519487   37.388345    2.823227
 H   75.512371   35.043280   -3.194893
 H   76.257092   32.688444   -3.496337
 H   74.869501   34.268140    0.984031
 H   75.312864   32.069379    1.628106
 H   76.311969   30.442908   -0.778913
 H   73.427351   37.542663   -3.390216
 H   75.463445   39.003669    4.386699
