37 
2o3z_ligand_aiqm1.xyz
 C   57.041959   64.008824   -4.469646
 C   55.580618   64.345650   -6.803035
 C   56.925783   64.014258   -6.883802
 C   51.798323   64.190559    0.988225
 C   59.110247   63.481103   -5.699493
 C   53.503203   65.015306   -1.551252
 C   54.952607   64.529120   -5.568407
 C   53.823413   64.883445   -3.023141
 C   50.056619   64.610254    2.788115
 C   51.504123   64.244530    2.482163
 C   55.690187   64.354739   -4.393396
 C   53.246176   63.822092    0.687585
 C   53.570882   63.690958   -0.798620
 C   57.657651   63.848990   -5.703886
 O   59.812679   63.802247   -6.814036
 O   55.188032   64.492399   -3.141185
 O   59.659420   62.943923   -4.778621
 H   57.607040   63.857336   -3.559703
 H   55.004929   64.461201   -7.712473
 H   57.376309   63.840836   -7.853361
 H   51.556777   65.162004    0.540532
 H   51.132779   63.460437    0.513542
 H   52.500843   65.444784   -1.475244
 H   54.195877   65.732821   -1.102585
 H   53.905257   64.791876   -5.537444
 H   53.668619   65.836396   -3.538662
 H   53.184227   64.126682   -3.489557
 H   49.805786   65.588986    2.373570
 H   49.370056   63.880021    2.354717
 H   49.874701   64.644667    3.862500
 H   52.175171   64.969753    2.951020
 H   51.740587   63.274305    2.928952
 H   53.475506   62.874535    1.182973
 H   53.908377   64.571289    1.136671
 H   54.570368   63.265521   -0.908967
 H   52.878407   62.977309   -1.260882
 H   59.258264   64.320946   -7.403767
