37 
2o3z_ligand_xtb.xyz
 C   56.983990   64.079986   -4.418198
 C   55.639548   64.243713   -6.822912
 C   56.986411   63.938257   -6.820327
 C   51.829034   64.212955    0.988635
 C   59.117773   63.523642   -5.510430
 C   53.324109   65.048026   -1.650857
 C   54.957143   64.485192   -5.641741
 C   53.685610   64.912003   -3.126574
 C   50.219187   64.592508    2.899571
 C   51.639964   64.209347    2.503998
 C   55.626073   64.401915   -4.422077
 C   53.255689   63.837292    0.593368
 C   53.456272   63.715047   -0.916489
 C   57.666717   63.860616   -5.604063
 O   59.865328   63.808186   -6.594276
 O   55.065753   64.610740   -3.211063
 O   59.618006   63.037396   -4.534681
 H   57.508699   64.005313   -3.479153
 H   55.104655   64.296720   -7.759551
 H   57.479849   63.724391   -7.758782
 H   51.587536   65.206275    0.605979
 H   51.130945   63.502960    0.538314
 H   52.302504   65.423163   -1.583728
 H   53.993896   65.780346   -1.197647
 H   53.907635   64.729330   -5.683674
 H   53.474493   65.852129   -3.655414
 H   53.094726   64.107431   -3.585606
 H   49.978434   65.590590    2.539505
 H   49.502802   63.893611    2.472907
 H   50.106013   64.581832    3.981078
 H   52.344341   64.911473    2.955844
 H   51.869182   63.215092    2.894179
 H   53.504548   62.878397    1.054184
 H   53.949258   64.581832    0.990267
 H   54.455081   63.319642   -1.109047
 H   52.730532   63.005570   -1.321805
 H   59.350064   64.237183   -7.290334
