18 
2o48_ligand_xtb.xyz
 C  -15.363555  -47.055828    3.617589
 C  -16.368868  -46.126813    3.351553
 C  -16.073327  -44.783750    3.349772
 C  -14.778591  -44.323867    3.610444
 C  -13.781135  -45.260901    3.875154
 C  -14.070318  -46.610444    3.878631
 O  -15.685737  -48.370477    3.612132
 O  -15.441418  -42.080282    3.354063
 C  -14.544947  -42.861427    3.589203
 C  -13.140243  -42.382485    3.873278
 H  -17.365687  -46.485468    3.151092
 H  -16.840361  -44.052023    3.145647
 H  -12.769693  -44.947977    4.081039
 H  -13.289167  -47.330938    4.085246
 H  -14.907944  -48.907377    3.808967
 H  -12.449422  -42.788890    3.137934
 H  -13.117971  -41.296837    3.824631
 H  -12.827413  -42.703818    4.864224
