18 
2o48_ligand_ani-2x.xyz
 C  -15.368829  -47.064715    3.609773
 C  -16.379397  -46.134308    3.355874
 C  -16.081188  -44.784093    3.360103
 C  -14.780836  -44.333489    3.615082
 C  -13.782884  -45.273209    3.866658
 C  -14.067689  -46.633775    3.865768
 O  -15.717679  -48.378591    3.593045
 O  -15.433778  -42.080733    3.378413
 C  -14.527251  -42.859428    3.604497
 C  -13.124944  -42.360645    3.879742
 H  -17.385948  -46.491486    3.158897
 H  -16.852422  -44.044324    3.165012
 H  -12.764859  -44.949805    4.067469
 H  -13.277399  -47.355512    4.064030
 H  -14.938086  -48.915474    3.782699
 H  -12.418716  -42.757305    3.141724
 H  -13.129144  -41.270651    3.831272
 H  -12.784752  -42.682059    4.870541
