32 
2o65_ligand_dft.xyz
 O    2.292171   -3.046714    0.389634
 C    1.803454   -1.937776    0.240609
 C    2.579779   -0.688571    0.073069
 C    3.996462   -0.627840    0.070373
 O    4.679188   -1.775394    0.225780
 C    4.659413    0.582037   -0.088341
 C    3.933276    1.763729   -0.249406
 O    4.649946    2.901711   -0.400980
 C    1.901436    0.525374   -0.089566
 C    2.545788    1.749437   -0.251261
 O    0.542555    0.596808   -0.109326
 C   -0.209199   -0.525432    0.044959
 C    0.352669   -1.734011    0.225445
 C   -1.653555   -0.232002    0.009636
 C   -2.564784   -1.232860   -0.334076
 C   -3.927380   -0.960437   -0.338381
 O   -4.809410   -1.929162   -0.676732
 C   -4.383336    0.315218   -0.006340
 O   -5.728183    0.532421   -0.030882
 C   -3.471314    1.313445    0.324096
 C   -2.109006    1.051304    0.333164
 O   -4.033645    2.522923    0.628202
 H    5.624382   -1.579344    0.202996
 H    5.744224    0.631424   -0.092308
 H    4.047339    3.647183   -0.510687
 H    1.955518    2.650906   -0.379152
 H   -0.264498   -2.608705    0.386519
 H   -2.236407   -2.223769   -0.625155
 H   -5.699302   -1.550725   -0.633369
 H   -5.889360    1.454360    0.213640
 H   -1.402087    1.831542    0.595808
 H   -3.343003    3.156686    0.852257
