32 
2o65_ligand_aiqm1.xyz
 O   74.806464   36.022030   -2.724257
 C   75.156202   35.648188   -1.613351
 C   75.715869   34.316773   -1.315691
 C   75.944603   33.313342   -2.289349
 O   75.634818   33.579812   -3.573591
 C   76.476721   32.077213   -1.943917
 C   76.795944   31.813682   -0.613827
 O   77.313797   30.588130   -0.341622
 C   76.057162   33.990040    0.002421
 C   76.591767   32.762013    0.376938
 O   75.882082   34.863281    1.034835
 C   75.410647   36.119227    0.788495
 C   75.046454   36.518247   -0.444983
 C   75.331261   36.934555    2.009897
 C   75.375392   38.330495    1.926429
 C   75.270686   39.096559    3.083578
 O   75.314010   40.449024    3.011151
 C   75.121727   38.476447    4.319467
 O   75.019862   39.268563    5.421547
 C   75.085530   37.090899    4.400425
 C   75.193611   36.311279    3.255534
 O   74.941145   36.596015    5.670289
 H   75.848208   32.807223   -4.102970
 H   76.652761   31.307912   -2.686543
 H   77.499541   30.523568    0.597320
 H   76.834102   32.584248    1.415501
 H   74.648447   37.508521   -0.607484
 H   75.503288   38.844670    0.984556
 H   75.225317   40.792411    3.907357
 H   74.928167   38.700424    6.193527
 H   75.167983   35.231292    3.323733
 H   74.931632   35.637616    5.640385
