32 
2o65_ligand_ani-2x.xyz
 O   74.790232   36.024299   -2.731547
 C   75.143026   35.651946   -1.626506
 C   75.717416   34.314188   -1.321656
 C   75.981441   33.323731   -2.296392
 O   75.713115   33.609923   -3.584942
 C   76.504311   32.086740   -1.946723
 C   76.781733   31.800285   -0.608391
 O   77.287810   30.574571   -0.331399
 C   76.023297   33.977965   -0.001211
 C   76.542396   32.744755    0.378446
 O   75.817775   34.843239    1.033360
 C   75.391780   36.110602    0.786939
 C   75.037854   36.509693   -0.451984
 C   75.317958   36.934279    2.016013
 C   75.341307   38.327954    1.927708
 C   75.254792   39.098914    3.078511
 O   75.282055   40.450426    2.998902
 C   75.135728   38.479380    4.322278
 O   75.048085   39.288114    5.417959
 C   75.114321   37.090830    4.410588
 C   75.210918   36.313651    3.268495
 O   74.999036   36.599028    5.684964
 H   75.946463   32.845711   -4.128307
 H   76.703606   31.328705   -2.699061
 H   77.434394   30.502005    0.620398
 H   76.744110   32.559858    1.428207
 H   74.622138   37.493503   -0.618306
 H   75.455289   38.836173    0.975178
 H   75.206350   40.794782    3.901971
 H   74.972896   38.723999    6.201740
 H   75.203002   35.230872    3.336229
 H   75.000564   35.633576    5.664340
