19 
2ohl_ligand_xtb.xyz
 N   65.895921   48.629486    5.953373
 C   66.627600   48.675439    7.095361
 C   66.934826   47.470714    7.789507
 C   67.670039   47.545055    8.931205
 C   68.109739   48.805772    9.400585
 C   68.872384   48.970567   10.569277
 C   69.267123   50.218396   10.970330
 C   68.912743   51.346242   10.216156
 C   68.171067   51.219102    9.073690
 C   67.749826   49.947556    8.635057
 N   67.020597   49.859699    7.505158
 H   65.560731   47.761249    5.583093
 H   65.691989   49.491270    5.482890
 H   66.580852   46.527882    7.399146
 H   67.926075   46.654489    9.489634
 H   69.140422   48.094160   11.143832
 H   69.853396   50.342317   11.869191
 H   69.233010   52.323675   10.547803
 H   67.890561   52.077130    8.482811
