28 
2ohm_ligand_aiqm1.xyz
 N   65.169435   48.698293    6.710082
 C   65.948534   47.832369    7.494255
 N   65.486389   46.614634    7.725352
 C   66.209031   45.807125    8.521917
 C   67.409477   46.187273    9.087876
 C   67.894324   47.480666    8.847147
 C   67.147806   48.337108    8.051827
 N   67.529223   49.647996    7.720535
 C   68.584114   50.282331    8.500432
 C   69.974849   49.848171    8.090905
 C   70.236099   49.305928    6.829960
 C   71.529849   48.926819    6.479287
 C   72.577674   49.084379    7.381451
 C   72.325796   49.622073    8.640662
 C   71.033191   49.998769    8.992824
 H   64.408555   48.187888    6.285255
 H   65.720228   49.164932    6.000685
 H   65.795788   44.822089    8.690857
 H   67.965703   45.499880    9.709864
 H   68.834475   47.806740    9.270494
 H   66.719988   50.246220    7.632635
 H   68.464602   50.104867    9.578036
 H   68.491917   51.358384    8.346573
 H   69.413861   49.177482    6.139229
 H   71.719996   48.504044    5.500725
 H   73.581331   48.787590    7.108142
 H   73.132610   49.746050    9.351350
 H   70.844056   50.411801    9.977543
