37 
2ohr_ligand_ani-2x.xyz
 N   65.324751   47.029705    6.388106
 C   65.948513   46.253177    7.370853
 N   65.499254   45.027364    7.581201
 C   66.092970   44.296033    8.535295
 C   67.142893   44.763856    9.306866
 C   67.604651   46.064843    9.098414
 C   66.989446   46.845822    8.132665
 N   67.324853   48.172976    7.815224
 C   68.258022   48.901776    8.659768
 C   69.704066   48.480672    8.469130
 C   70.635741   48.687657    9.487834
 C   71.961690   48.300085    9.318983
 C   72.370198   47.702550    8.132667
 C   71.455700   47.501992    7.096251
 C   70.128799   47.896112    7.279685
 C   71.878224   46.896803    5.809008
 C   72.781561   45.835639    5.739309
 C   73.126386   45.318690    4.498719
 C   72.569006   45.892679    3.360519
 N   71.711304   46.914235    3.398470
 C   71.378433   47.385567    4.597796
 H   64.690083   46.467454    5.832796
 H   65.983072   47.533000    5.802200
 H   65.702569   43.289919    8.675810
 H   67.597212   44.132338   10.064058
 H   68.436470   46.450830    9.683973
 H   66.483384   48.710391    7.638072
 H   68.001767   48.826136    9.730712
 H   68.150050   49.960682    8.395168
 H   70.324520   49.156183   10.419575
 H   72.679963   48.459172   10.119209
 H   73.410745   47.415532    7.998359
 H   69.397777   47.709489    6.498448
 H   73.191125   45.404047    6.650149
 H   73.822270   44.489142    4.413870
 H   72.822410   45.518411    2.370568
 H   70.683519   48.225842    4.605673
