35 
2ooh_ligand_ani-2x.xyz
 C  -50.323632   22.272077   33.491257
 O  -49.192849   21.559559   33.738193
 C  -51.530749   21.731499   33.937030
 C  -52.704424   22.427407   33.704876
 C  -52.713626   23.656238   33.027629
 C  -51.493448   24.184801   32.594431
 C  -50.310096   23.496432   32.824484
 C  -54.023948   24.294892   32.849663
 N  -54.424109   25.326363   32.210788
 O  -53.416127   25.965449   31.497157
 C  -53.851403   27.048383   30.762864
 O  -53.020927   27.840697   30.417186
 C  -55.316609   27.099739   30.395547
 C  -55.694062   25.901121   29.507755
 C  -57.156001   25.985731   29.064211
 C  -57.451085   27.311330   28.359346
 C  -57.085882   28.500440   29.250249
 C  -55.623458   28.425376   29.689051
 H  -48.433293   22.038257   33.383266
 H  -51.524467   20.778567   34.458054
 H  -53.647755   22.010955   34.054836
 H  -51.469500   25.135839   32.080664
 H  -49.367224   23.918858   32.478528
 H  -54.846243   23.799656   33.365329
 H  -55.897982   27.035081   31.323012
 H  -55.509046   24.969270   30.049239
 H  -55.037669   25.901784   28.626246
 H  -57.802290   25.893696   29.949348
 H  -57.400508   25.139851   28.410893
 H  -58.505501   27.362221   28.061254
 H  -56.859644   27.363517   27.433499
 H  -57.731233   28.499927   30.141185
 H  -57.275761   29.445736   28.728329
 H  -54.963282   28.507299   28.816157
 H  -55.367067   29.261652   30.348146
