24 
2os9_ligand_aiqm1.xyz
 C   27.665355  -13.690804   11.162483
 C   27.691431  -14.759860   10.073196
 C   28.654504  -14.334336    8.970908
 C   30.034132  -14.081643    9.547418
 C   30.000694  -13.000687   10.614179
 C   29.054745  -13.403868   11.725897
 O   26.881129  -14.148381   12.264661
 O   28.112968  -15.998456   10.611609
 O   28.822529  -15.302466    7.954001
 O   30.933903  -13.625951    8.548727
 O   31.285871  -12.818349   11.165582
 O   28.973774  -12.347817   12.659127
 H   27.247398  -12.767192   10.755682
 H   26.678287  -14.859279    9.653937
 H   28.259820  -13.402508    8.543537
 H   30.391354  -15.012728    9.996277
 H   29.635981  -12.070471   10.153941
 H   29.431098  -14.322919   12.187773
 H   25.967625  -13.906236   12.115677
 H   27.635759  -16.104907   11.441712
 H   27.971351  -15.480791    7.550088
 H   30.955137  -14.289664    7.855657
 H   31.887676  -12.693700   10.425492
 H   28.437778  -12.657988   13.393741
