51 
2ovy_ligand_ani-2x.xyz
 C   -3.865686   -1.063764   -0.997540
 C   -0.624374   -0.562927    0.785967
 C   -1.714005   -1.277120    0.140906
 C   -1.830045    1.373245    0.586255
 C    2.764836    1.630795   -0.200732
 C    2.708314   -1.931818    0.487626
 C    1.558215   -0.377961    1.858186
 C    1.199782   -2.234633    0.384937
 C    3.139621    4.271741   -0.402755
 C   -3.799972   -5.296489   -0.073535
 O   -2.894873   -4.597066   -0.912534
 C   -2.868049   -3.246421   -0.697215
 C   -1.801708   -2.683554   -0.048936
 N   -0.752914    0.728219    1.063203
 N   -2.830514    0.875289   -0.087315
 C   -2.781269   -0.471253   -0.303105
 C   -3.919729   -2.418532   -1.192378
 O   -4.923767   -3.070996   -1.829323
 C   -5.981223   -2.280465   -2.328436
 N    0.535387   -1.164947    1.160749
 C    2.760663   -0.476740    0.928100
 O    2.512943    0.311280   -0.250498
 N    3.425570    2.167104    0.778255
 C    3.630616    3.522119    0.686349
 C    4.347827    4.181122    1.707773
 C    4.563168    5.536362    1.638898
 C    4.069781    6.286635    0.546749
 C    3.369593    5.667183   -0.457824
 N    2.437053    3.666020   -1.417592
 C    2.260122    2.383653   -1.315120
 H   -4.650379   -0.400270   -1.339489
 H   -1.862655    2.443241    0.791372
 H    3.236589   -2.087756   -0.454009
 H    3.171561   -2.562170    1.253169
 H    1.790362   -0.834879    2.828479
 H    1.210244    0.642081    2.005874
 H    0.862452   -2.219508   -0.656861
 H    0.976912   -3.218853    0.811532
 H   -3.543089   -5.143145    0.983128
 H   -4.831609   -4.974372   -0.250902
 H   -3.697990   -6.355733   -0.321270
 H   -1.031887   -3.348009    0.324379
 H   -5.621605   -1.555910   -3.070296
 H   -6.494140   -1.746646   -1.518160
 H   -6.678126   -2.970335   -2.805656
 H    3.702556   -0.169716    1.383946
 H    4.715857    3.582533    2.536332
 H    5.116264    6.039358    2.428033
 H    4.248714    7.358351    0.507760
 H    2.975829    6.210954   -1.311659
 H    1.708577    1.864805   -2.099013
