51 
2ovy_ligand_xtb.xyz
 C   -3.365284   -0.783238   -0.917371
 C   -0.106726   -0.546099    0.824016
 C   -1.289444   -1.158177    0.299773
 C   -0.991887    1.504629    0.362253
 C    2.649502    1.357716   -0.440417
 C    2.891859   -2.197139    0.242561
 C    2.117068   -0.546323    1.755689
 C    1.420431   -2.475719    0.629885
 C    2.478006    4.029579   -0.436144
 C   -4.230144   -4.952554   -0.200382
 O   -2.964825   -4.353657   -0.027166
 C   -2.790318   -3.009913   -0.190155
 C   -1.637826   -2.513443    0.379061
 N   -0.024126    0.774600    0.910783
 N   -2.032485    1.074531   -0.289782
 C   -2.212139   -0.266722   -0.304441
 C   -3.656115   -2.126396   -0.898416
 O   -4.746485   -2.668180   -1.516963
 C   -5.623777   -1.809299   -2.205014
 N    0.946327   -1.271442    1.299607
 C    3.095394   -0.722479    0.592213
 O    2.669826    0.025247   -0.543726
 N    3.166704    1.961348    0.596240
 C    3.092038    3.313581    0.623680
 C    3.621497    4.019908    1.717759
 C    3.534715    5.385955    1.750441
 C    2.923221    6.094006    0.704743
 C    2.401740    5.431840   -0.374075
 N    1.968973    3.372952   -1.508778
 C    2.051744    2.080630   -1.516827
 H   -4.014789   -0.067621   -1.392167
 H   -0.865252    2.577803    0.442943
 H    3.067720   -2.367130   -0.817145
 H    3.576881   -2.815247    0.819991
 H    2.514944   -1.028747    2.652317
 H    1.868744    0.491955    1.956713
 H    0.813293   -2.681740   -0.251107
 H    1.357490   -3.328079    1.313429
 H   -5.007171   -4.421432    0.353999
 H   -4.512734   -5.009412   -1.253430
 H   -4.123530   -5.960101    0.202192
 H   -1.029940   -3.210238    0.931951
 H   -5.114369   -1.284035   -3.018300
 H   -6.082237   -1.079620   -1.530848
 H   -6.396796   -2.455503   -2.618531
 H    4.123780   -0.452107    0.848242
 H    4.086041    3.459398    2.514152
 H    3.939146    5.932127    2.590237
 H    2.867655    7.171266    0.758688
 H    1.927689    5.953621   -1.190712
 H    1.645778    1.549199   -2.365859
