74 
2ow3_ligand_xtb.xyz
 C  -37.667536   -0.770959   74.078957
 C  -37.174392   -1.539658   72.908202
 C  -39.406936   -2.030578   73.265706
 C  -38.209293   -2.299438   72.430453
 C  -38.296400   -3.253565   71.360853
 C  -37.289202   -4.091421   70.770777
 C  -39.471311   -3.561001   70.702808
 N  -39.262075   -4.492415   69.742300
 C  -35.855277   -1.368668   72.370307
 C  -35.528354   -1.478174   71.032548
 C  -33.615607   -1.068994   72.065872
 C  -35.947479   -4.351969   71.047960
 C  -35.265948   -5.244096   70.247470
 C  -37.240548   -5.726248   68.943358
 C  -35.896941   -5.909758   69.196111
 C  -32.941600   -0.708096   74.701671
 C  -31.958648   -0.675685   73.711253
 O  -37.107045    0.039587   74.773512
 C  -34.323780   -1.642036   68.393470
 C  -37.666767   -0.053945   67.862477
 C  -38.891936   -0.499250   67.393969
 C  -37.768687   -2.255165   66.254299
 C  -38.981841   -1.625645   66.590359
 C  -40.257336   -5.047354   68.865207
 C  -40.213054   -4.395164   67.479170
 C  -40.350239   -2.170876   66.282588
 C  -40.843719   -3.003338   67.476106
 C  -38.156410   -3.232009   64.066089
 C  -34.624323   -1.092920   73.058565
 C  -34.268193   -0.918242   74.393968
 C  -32.279578   -0.858627   72.382882
 N  -34.199558   -1.292656   70.842912
 C  -33.446622   -1.405347   69.615577
 C  -35.176078   -0.412123   68.049976
 C  -36.537693   -0.790785   67.536682
 N  -36.604507   -1.854155   66.750444
 N  -37.736564   -3.393200   65.445886
 C  -36.530586   -4.189103   65.553696
 O  -40.524955   -2.481567   73.181545
 N  -38.998677   -1.127607   74.227057
 C  -37.931697   -4.824987   69.742584
 H  -40.449908   -3.161066   70.883605
 H  -36.203530   -1.647792   70.219100
 H  -35.456282   -3.885513   71.885571
 H  -34.222576   -5.444191   70.443245
 H  -37.735495   -6.273768   68.155501
 H  -35.328751   -6.596907   68.586571
 H  -32.650682   -0.564346   75.731706
 H  -30.929263   -0.507800   73.992016
 H  -34.967916   -2.504635   68.569789
 H  -33.683060   -1.895099   67.549330
 H  -37.596262    0.821925   68.488550
 H  -39.796950    0.020898   67.677310
 H  -41.239976   -4.901454   69.321075
 H  -40.074935   -6.122960   68.776452
 H  -40.735342   -5.034172   66.764992
 H  -39.172122   -4.320662   67.162783
 H  -40.358194   -2.800543   65.396223
 H  -41.034474   -1.334943   66.119866
 H  -40.584328   -2.479820   68.398842
 H  -41.931479   -3.094811   67.437076
 H  -38.620011   -4.156618   63.715268
 H  -38.865820   -2.414677   63.970557
 H  -37.298323   -3.007804   63.419524
 H  -35.017958   -0.928256   75.167378
 H  -31.516422   -0.842257   71.619036
 H  -32.861241   -0.487140   69.480899
 H  -32.741671   -2.239834   69.723868
 H  -34.670417    0.182995   67.284667
 H  -35.297483    0.225682   68.927146
 H  -35.667427   -3.709540   65.079016
 H  -36.302215   -4.347978   66.605182
 H  -36.714553   -5.150034   65.072690
 H  -39.601743   -0.755542   74.944541
