43 
2p3i_ligand_aiqm1.xyz
 C    2.598690   -0.667265   -1.501006
 C    2.524877   -0.256986   -0.000595
 C    2.545432    1.250086    0.138242
 C    1.304956    1.895062   -0.464963
 C    0.079921    1.293355    0.227095
 C    0.103585   -0.240867    0.148957
 C   -1.002081   -0.874477    1.027875
 C   -1.889615   -1.800676    0.196595
 C   -2.947734   -2.468847    1.047656
 C   -1.738424    2.922367   -0.159697
 C   -3.130771    3.117431   -0.706950
 C    3.844992   -2.150863    0.588089
 N   -1.175813    1.715173   -0.389423
 O    1.772295   -1.297205   -2.103015
 O    3.725564   -0.207862   -2.063794
 O    3.595529   -0.751460    0.713985
 O    1.429951    3.289208   -0.310399
 O    1.346051   -0.805937    0.577489
 O   -0.509811   -1.583703    2.140640
 O   -2.512787   -0.978536   -0.793279
 O   -3.803893   -3.159693    0.136061
 O   -1.157656    3.816024    0.451926
 H    2.573612    1.476705    1.206078
 H    3.448914    1.647836   -0.321844
 H    1.241998    1.649201   -1.538557
 H    0.095413    1.623082    1.272015
 H   -0.076123   -0.518350   -0.896179
 H   -1.637120   -0.062148    1.400744
 H   -1.285599   -2.576129   -0.289289
 H   -3.506229   -1.712883    1.606928
 H   -2.474828   -3.157976    1.747083
 H   -3.156977    4.055272   -1.256953
 H   -3.819767    3.210870    0.131846
 H   -3.455247    2.301482   -1.351278
 H    4.680654   -2.356379    1.248682
 H    4.121722   -2.402959   -0.437512
 H    2.981853   -2.739951    0.891514
 H   -1.745673    0.994759   -0.816246
 H    3.702186   -0.464344   -2.995502
 H    0.590931    3.658500    0.009821
 H    0.447020   -1.621085    2.051448
 H   -3.206352   -1.508534   -1.192655
 H   -4.523845   -3.551399    0.628266
