33 
2p7g_ligand_xtb.xyz
 O   48.549769  -29.606123 -101.081894
 C   48.512889  -29.433107  -99.730636
 C   47.684062  -30.254791  -98.977807
 C   47.619201  -30.107907  -97.604882
 C   49.273394  -28.465640  -99.085733
 C   49.199011  -28.328107  -97.713744
 C   48.369946  -29.141770  -96.948232
 C   48.367157  -28.958658  -95.438704
 C   49.677617  -29.560972  -94.911743
 C   47.196379  -29.673635  -94.748850
 C   48.226672  -27.476649  -95.128909
 C   49.009296  -26.810964  -94.194812
 C   48.817741  -25.468675  -93.926004
 C   47.234664  -26.753216  -95.783096
 C   47.032729  -25.412255  -95.522636
 C   47.826366  -24.757184  -94.589209
 O   47.667683  -23.435090  -94.299247
 H   49.164951  -28.974155 -101.472553
 H   47.096941  -31.004408  -99.484430
 H   46.966008  -30.763733  -97.052108
 H   49.923764  -27.819408  -99.661540
 H   49.790621  -27.565251  -97.228635
 H   49.765705  -30.587998  -95.261301
 H   50.536869  -29.004063  -95.276898
 H   49.692898  -29.570436  -93.824449
 H   46.245764  -29.369218  -95.179500
 H   47.296677  -30.753411  -94.829824
 H   47.189370  -29.411803  -93.692375
 H   49.787281  -27.332150  -93.660539
 H   49.429854  -24.954475  -93.201973
 H   46.614394  -27.245626  -96.517995
 H   46.256222  -24.868655  -96.045789
 H   46.947004  -23.071968  -94.827652
