33 
2p7g_ligand_aiqm1.xyz
 O   48.591777  -29.639734 -101.112703
 C   48.555268  -29.448225  -99.758226
 C   47.629446  -30.182293  -99.029235
 C   47.554497  -30.023355  -97.646269
 C   49.398661  -28.555267  -99.105812
 C   49.313990  -28.406681  -97.727631
 C   48.395143  -29.135421  -96.966237
 C   48.366296  -28.952331  -95.444752
 C   49.672270  -29.531506  -94.862477
 C   47.202461  -29.719642  -94.783870
 C   48.199239  -27.461366  -95.130938
 C   49.059235  -26.757017  -94.281309
 C   48.858279  -25.406818  -93.998350
 C   47.128885  -26.757991  -95.691908
 C   46.917677  -25.412870  -95.418634
 C   47.783901  -24.735933  -94.566725
 O   47.627591  -23.411984  -94.257917
 H   49.270541  -29.072642 -101.484300
 H   46.976308  -30.871503  -99.547737
 H   46.822918  -30.606825  -97.105329
 H   50.118789  -27.975675  -99.673409
 H   49.969557  -27.699632  -97.235229
 H   49.738924  -30.591975  -95.113520
 H   50.563742  -29.035974  -95.258769
 H   49.689395  -29.446030  -93.772476
 H   46.224074  -29.391708  -95.147921
 H   47.289907  -30.795368  -94.959584
 H   47.230478  -29.556032  -93.704753
 H   49.904925  -27.252577  -93.825805
 H   49.527421  -24.869287  -93.339753
 H   46.452559  -27.268647  -96.365671
 H   46.080929  -24.889855  -95.869177
 H   46.853814  -23.079333  -94.717276
