16 
2pfy_ligand_aiqm1.xyz
 N   -0.546818    0.348648    1.179779
 C    0.389599   -0.586018    0.609239
 C   -0.402122   -1.164684   -0.576607
 C   -1.268675    0.019927   -1.011506
 C   -1.440355    0.843004    0.257402
 O   -2.206783    1.760518    0.437484
 C    1.698090    0.039295    0.131738
 O    1.930494    1.239560    0.695961
 O    2.453333   -0.487723   -0.640991
 H   -0.303756    0.926580    1.967022
 H    0.672167   -1.357659    1.330009
 H    0.255237   -1.539280   -1.355920
 H   -1.021085   -1.981175   -0.208777
 H   -2.236770   -0.251056   -1.425150
 H   -0.753123    0.644592   -1.744542
 H    2.780366    1.545670    0.355058
