46 
2pks_ligand_xtb.xyz
 C   20.685331  -16.572753   26.039453
 C   20.061752  -15.347271   25.445874
 C   20.261633  -14.098042   26.024456
 C   19.694609  -12.961479   25.473502
 C   18.933985  -13.047469   24.322112
 C   18.732670  -14.288666   23.722715
 C   19.285931  -15.428655   24.300269
 C   17.901984  -14.444759   22.503444
 O   17.255306  -15.450224   22.289948
 C   17.901694  -13.303521   21.547561
 C   19.048609  -12.542384   21.299434
 C   18.949557  -11.515266   20.379858
 N   17.839176  -11.205109   19.734813
 C   16.745164  -11.941157   19.951478
 N   15.658476  -11.588195   19.217818
 C   14.336920  -12.119695   19.424432
 C   13.775171  -11.871035   20.808243
 C   12.793362  -12.714307   21.314517
 C   12.260874  -12.500121   22.570498
 C   12.716192  -11.448366   23.359622
 C   13.702144  -10.606721   22.855014
 C   14.216932  -10.810793   21.588554
 C   12.129349  -11.214881   24.705332
 N   10.900577  -11.323915   25.012249
 N   13.008005  -10.778502   25.657612
 C   16.738686  -13.014257   20.855850
 H   21.711041  -16.676467   25.683895
 H   20.712416  -16.506794   27.124880
 H   20.135782  -17.465170   25.751274
 H   20.861214  -14.017459   26.919999
 H   19.847989  -12.002044   25.945618
 H   18.479560  -12.162195   23.902186
 H   19.102594  -16.383215   23.828311
 H   19.980986  -12.759488   21.795270
 H   19.802862  -10.890593   20.148102
 H   15.767403  -10.735937   18.692532
 H   14.346787  -13.200173   19.233201
 H   13.674776  -11.663847   18.681913
 H   12.445006  -13.545963   20.718747
 H   11.501294  -13.165712   22.955901
 H   14.049497   -9.775073   23.450350
 H   14.976470  -10.142906   21.208887
 H   10.295184  -11.568711   24.235780
 H   12.631110  -10.737208   26.590944
 H   13.973682  -11.046582   25.573203
 H   15.853457  -13.601219   21.036350
