46 
2pks_ligand_ani-2x.xyz
 C   21.141033  -17.270936   25.500196
 C   20.412603  -15.982739   25.196512
 C   20.451306  -14.910957   26.095972
 C   19.770801  -13.728592   25.824737
 C   19.053160  -13.586571   24.642431
 C   19.021472  -14.638215   23.724985
 C   19.680395  -15.832857   24.023918
 C   18.249346  -14.588270   22.445485
 O   17.766931  -15.603306   21.974779
 C   18.063368  -13.281767   21.723362
 C   18.973782  -12.224909   21.770943
 C   18.697794  -11.096061   21.014108
 N   17.618597  -10.952134   20.244465
 C   16.750819  -11.968589   20.198259
 N   15.660312  -11.787083   19.360955
 C   14.382205  -12.421725   19.650826
 C   13.686422  -11.911829   20.896528
 C   13.724588  -12.626589   22.096146
 C   13.102316  -12.137562   23.237575
 C   12.440768  -10.910635   23.213771
 C   12.406305  -10.188097   22.018776
 C   13.016859  -10.685346   20.877267
 C   11.765776  -10.388404   24.443301
 N   11.124806  -11.092802   25.293711
 N   11.826780   -9.011952   24.598109
 C   16.952407  -13.166204   20.901475
 H   22.218748  -17.100415   25.600928
 H   20.789228  -17.710851   26.440054
 H   20.991743  -18.010677   24.708327
 H   21.015758  -15.011817   27.020252
 H   19.803116  -12.908113   26.536108
 H   18.513372  -12.665754   24.436475
 H   19.598212  -16.648847   23.308392
 H   19.878496  -12.281973   22.367261
 H   19.384667  -10.252864   21.030343
 H   15.599456  -10.817684   19.078739
 H   14.539336  -13.502434   19.720315
 H   13.746247  -12.265333   18.771730
 H   14.239369  -13.585520   22.139604
 H   13.150168  -12.705990   24.164907
 H   11.881847   -9.236183   21.992563
 H   12.973903  -10.107684   19.955244
 H   11.130268  -12.075485   25.023505
 H   11.516891   -8.713456   25.514033
 H   12.689330   -8.576024   24.302253
 H   16.282093  -14.013064   20.802377
