39 
2pog_ligand_dft.xyz
 C   -2.282699   -0.086493    0.263815
 C   -3.669349   -0.248716    0.383477
 O   -4.367826    0.841934    0.812546
 C   -4.294935   -1.451549    0.069589
 C   -3.525348   -2.523740   -0.377605
 C   -2.149775   -2.406105   -0.487440
 C   -1.543036   -1.192640   -0.155889
 O   -0.186098   -1.136300   -0.267780
 C    0.446121   -0.212916    0.613543
 C   -0.096056    1.199115    0.391677
 C   -1.643297    1.259924    0.515992
 C   -2.092389    2.325024   -0.534948
 C   -0.797504    2.947074   -1.078523
 C    0.217693    1.808665   -0.979304
 C    1.937993   -0.304046    0.402756
 C    2.804752    0.164011    1.392904
 C    4.180099    0.147748    1.214042
 C    4.714373   -0.349795    0.025093
 O    6.069670   -0.349326   -0.102119
 C    3.861987   -0.825189   -0.969632
 C    2.483802   -0.798110   -0.778523
 H   -5.305777    0.619584    0.841573
 H   -5.373126   -1.550822    0.171559
 H   -4.009378   -3.463103   -0.626707
 H   -1.526026   -3.231902   -0.810830
 H    0.207401   -0.516968    1.645106
 H    0.345599    1.842114    1.163748
 H   -1.927727    1.593220    1.519677
 H   -2.632887    1.827491   -1.347017
 H   -2.774280    3.060629   -0.101942
 H   -0.912238    3.340490   -2.093289
 H   -0.475922    3.779438   -0.439151
 H    1.257801    2.134762   -1.067133
 H    0.032730    1.063688   -1.764285
 H    2.397054    0.547335    2.325922
 H    4.854561    0.507058    1.984048
 H    6.305542   -0.721896   -0.959947
 H    4.272489   -1.220808   -1.896617
 H    1.823612   -1.174345   -1.552019
