30 
2prj_ligand_ani-2x.xyz
 C    0.634510   -0.175458   -0.096162
 C   -0.346616   -1.303065    0.276437
 C   -1.695815   -1.075204   -0.383319
 C   -2.221816    0.319413   -0.104413
 C   -1.173321    1.335697   -0.539460
 C   -1.561046    2.777184   -0.230558
 C    2.830376   -1.060247    0.655762
 C    4.067654   -0.718770    1.453130
 N    1.822006   -0.160194    0.743204
 O   -2.646643   -2.004060    0.089178
 O    0.075616   -2.569718   -0.157954
 O   -3.404600    0.563934   -0.831828
 O    0.055197    1.094844    0.148859
 O   -0.558273    3.667665   -0.660010
 O    2.741908   -2.081697   -0.022518
 H    0.909037   -0.275193   -1.160968
 H   -0.479310   -1.280392    1.372468
 H   -1.564627   -1.181844   -1.475561
 H   -2.389307    0.424413    0.981856
 H   -1.010382    1.242258   -1.626849
 H   -1.756160    2.878395    0.850824
 H   -2.480088    3.030277   -0.764272
 H    4.795687   -1.522045    1.337358
 H    4.507337    0.221078    1.102056
 H    3.822520   -0.598839    2.513560
 H    1.987104    0.720995    1.206010
 H   -2.266175   -2.881546   -0.061054
 H    1.055634   -2.591503   -0.149344
 H   -4.013346   -0.155888   -0.614289
 H    0.263336    3.359409   -0.253043
