30 
2prj_ligand_dft.xyz
 C    0.599837    0.248593   -0.580361
 C    0.430931   -1.161106    0.005346
 C   -1.017534   -1.585277   -0.211045
 C   -1.993457   -0.575886    0.367058
 C   -1.696748    0.794711   -0.233268
 C   -2.522332    1.914187    0.377430
 C    3.042239    0.387152    0.160776
 C    4.138864    1.422562    0.320619
 N    1.884335    0.879343   -0.355437
 O   -1.270310   -2.831558    0.395546
 O    1.215427   -2.132150   -0.632211
 O   -3.324393   -0.917995    0.060539
 O   -0.332148    1.131075    0.018562
 O   -2.192319    3.161605   -0.186317
 O    3.240747   -0.788426    0.449865
 H    0.410245    0.198231   -1.665361
 H    0.632332   -1.114886    1.084771
 H   -1.194434   -1.648623   -1.298484
 H   -1.838109   -0.525434    1.457343
 H   -1.875388    0.765097   -1.319308
 H   -2.371713    1.909982    1.468876
 H   -3.579533    1.729963    0.177806
 H    4.869552    1.043657    1.035310
 H    4.641285    1.573946   -0.640757
 H    3.755496    2.387270    0.665976
 H    1.865682    1.869769   -0.553914
 H   -0.558864   -3.417781    0.100116
 H    2.122790   -1.972063   -0.306405
 H   -3.420786   -1.854387    0.281871
 H   -1.235733    3.249827   -0.086995
