52 
2psj_ligand_xtb.xyz
 O  -19.079511    0.381516   38.422745
 C  -18.335655    0.950924   37.670218
 C  -18.754518    2.150530   36.824875
 C  -17.768213    3.285166   36.844615
 C  -17.141479    3.657149   38.031299
 C  -16.246413    4.706341   38.064508
 C  -15.969438    5.422563   36.902716
 O  -15.080743    6.448965   36.975075
 C  -16.599315    5.066979   35.716810
 C  -17.483535    4.003258   35.691795
 N  -17.020248    0.613039   37.457415
 C  -16.321746   -0.428355   38.045335
 C  -14.910639   -0.447705   38.020624
 C  -14.093226    0.665688   37.424134
 C  -14.400350    0.875775   35.964438
 C  -14.601681    2.152050   35.452780
 C  -14.885113    2.332720   34.109862
 C  -14.977215    1.240531   33.265433
 C  -14.774172   -0.034865   33.767020
 C  -14.484812   -0.215935   35.106639
 N  -14.253578   -1.466607   38.530850
 C  -14.928561   -2.475380   39.098703
 C  -16.321413   -2.404615   39.162542
 N  -16.997347   -1.403996   38.630962
 C  -14.137781   -3.581203   39.636971
 C  -12.773655   -3.396123   39.874659
 C  -11.997183   -4.409927   40.388273
 C  -12.569206   -5.647630   40.674424
 O  -11.774035   -6.625027   41.181510
 C  -13.923807   -5.846812   40.430701
 C  -14.698670   -4.825256   39.918306
 H  -19.722744    2.487302   37.205032
 H  -18.903577    1.801860   35.799445
 H  -17.361716    3.115862   38.939927
 H  -15.755585    4.994748   38.980304
 H  -14.996413    6.874401   36.113309
 H  -16.395388    5.624643   34.811963
 H  -17.961028    3.734493   34.760790
 H  -16.478655    1.219296   36.853628
 H  -13.041704    0.393060   37.543745
 H  -14.271811    1.591428   37.979011
 H  -14.533447    3.009028   36.108431
 H  -15.035541    3.330049   33.724795
 H  -15.202138    1.381583   32.218795
 H  -14.839457   -0.890339   33.111275
 H  -14.320030   -1.209455   35.497739
 H  -16.923067   -3.153401   39.656342
 H  -12.339185   -2.435248   39.649354
 H  -10.944895   -4.270135   40.578212
 H  -12.292018   -7.424606   41.335208
 H  -14.370219   -6.810143   40.641929
 H  -15.743326   -5.010182   39.721628
