37 
2pvh_ligand_ani-2x.xyz
 N   19.854463   10.600152   19.440261
 C   20.067849   11.056024   18.211805
 C   20.933263   10.250186   17.448668
 C   21.278946    9.207265   18.292748
 N   20.598167    9.471518   19.475866
 N   22.061260    8.109076   18.196583
 C   22.107875    7.365558   19.297037
 N   21.468196    7.575386   20.480826
 C   20.706792    8.631590   20.552009
 N   19.986815    8.995005   21.635961
 C   19.997264    8.380856   22.904710
 C   20.248305    7.015829   23.076786
 C   20.250577    6.479371   24.361287
 C   19.994774    7.270905   25.475497
 C   19.726132    8.624435   25.295911
 C   19.720633    9.174015   24.020222
 N   22.894207    6.247597   19.214814
 C   23.073066    5.211685   20.154277
 C   23.020310    5.415475   21.538205
 C   23.205244    4.335079   22.395825
 C   23.459953    3.057986   21.909481
 C   23.538749    2.865103   20.533376
 C   23.356679    3.932591   19.664716
 H   19.586057   11.972649   17.892069
 H   21.264665   10.399096   16.430558
 H   19.508289    9.885557   21.542948
 H   20.433420    6.384911   22.215623
 H   20.466295    5.419477   24.487093
 H   20.001898    6.837541   26.471151
 H   19.517696    9.259781   26.152976
 H   19.514420   10.233321   23.882697
 H   23.264507    6.093105   18.287793
 H   22.842088    6.405027   21.939487
 H   23.140037    4.502735   23.469780
 H   23.599998    2.225771   22.592624
 H   23.745727    1.876928   20.130161
 H   23.419684    3.775813   18.590069
