37 
2pvh_ligand_aiqm1.xyz
 N   19.939480   10.642805   19.491841
 C   20.121938   11.071858   18.239724
 C   20.922258   10.217604   17.457484
 C   21.256920    9.179527   18.308816
 N   20.644533    9.477788   19.512325
 N   22.000231    8.053321   18.179471
 C   22.077721    7.324274   19.276469
 N   21.486125    7.551015   20.492857
 C   20.765082    8.643054   20.581497
 N   20.105536    9.036962   21.686393
 C   20.042666    8.423330   22.959390
 C   20.356269    7.077426   23.175682
 C   20.260192    6.553901   24.462956
 C   19.846565    7.337063   25.534533
 C   19.521903    8.672389   25.308981
 C   19.619201    9.212631   24.031180
 N   22.845748    6.204854   19.167737
 C   23.058868    5.167494   20.097944
 C   23.138036    5.379771   21.479253
 C   23.369884    4.302067   22.329868
 C   23.551794    3.016341   21.831879
 C   23.495449    2.810981   20.456005
 C   23.250508    3.876349   19.596658
 H   19.661873   12.000840   17.938471
 H   21.218127   10.333172   16.432770
 H   19.656904    9.938227   21.580656
 H   20.671538    6.459385   22.353278
 H   20.512736    5.514061   24.620221
 H   19.774871    6.916166   26.527474
 H   19.193749    9.302134   26.124546
 H   19.366072   10.253143   23.860505
 H   23.137376    6.025109   18.221443
 H   22.993272    6.372837   21.874925
 H   23.410659    4.478156   23.397115
 H   23.736626    2.188424   22.502004
 H   23.636949    1.820845   20.044096
 H   23.206641    3.709095   18.525455
