47 
2pvj_ligand_dft.xyz
 N    3.440282    1.686572   -0.490132
 C    4.564295    1.010301   -0.638592
 C    4.440982   -0.364471   -0.319973
 C    3.103120   -0.528887    0.058705
 N    2.560697    0.734841   -0.059198
 N    2.368030   -1.573486    0.450946
 C    1.097204   -1.279450    0.718431
 N    0.501823   -0.053177    0.631754
 C    1.237423    0.945011    0.221471
 N    0.802143    2.204203    0.033967
 C   -0.514815    2.711571    0.075810
 C   -1.611184    1.987565    0.551400
 C   -2.874359    2.571237    0.529255
 C   -3.061477    3.864657    0.054430
 C   -1.961961    4.585477   -0.404218
 C   -0.696567    4.014971   -0.396646
 N    0.293606   -2.283662    1.118175
 C   -1.095731   -2.109494    1.507670
 C   -2.054177   -1.878257    0.335258
 C   -2.170263   -3.101059   -0.579849
 C   -3.127097   -2.832107   -1.745207
 C   -4.504219   -2.384688   -1.245260
 C   -4.393845   -1.173570   -0.313643
 C   -3.435022   -1.452447    0.846618
 C    5.444082   -1.361944   -0.374435
 N    6.278296   -2.167010   -0.425167
 H    5.456162    1.520610   -0.975808
 H    1.527359    2.831498   -0.297441
 H   -1.472489    0.984929    0.928725
 H   -3.721261    1.996887    0.894070
 H   -4.051583    4.308659    0.043240
 H   -2.086622    5.597776   -0.775937
 H    0.155509    4.580963   -0.765192
 H    0.733260   -3.188814    1.176461
 H   -1.158763   -1.266424    2.205325
 H   -1.388900   -3.009766    2.058856
 H   -1.648957   -1.047760   -0.257733
 H   -2.542267   -3.955584    0.006653
 H   -1.179743   -3.380185   -0.958752
 H   -3.222285   -3.727523   -2.369830
 H   -2.701198   -2.045357   -2.383431
 H   -4.976138   -3.214534   -0.700021
 H   -5.158411   -2.151888   -2.093178
 H   -5.382964   -0.898418    0.070622
 H   -4.021443   -0.308946   -0.881427
 H   -3.341038   -0.561659    1.482457
 H   -3.850696   -2.248931    1.482578
