47 
2pvj_ligand_aiqm1.xyz
 N   20.291491    9.533972   19.917882
 C   20.494701    9.757602   18.622006
 C   21.432087    8.870086   18.046388
 C   21.827584    8.037537   19.092911
 N   21.118723    8.478741   20.182580
 N   22.677176    7.002541   19.183364
 C   22.760648    6.472227   20.398927
 N   22.100330    6.870546   21.538084
 C   21.269141    7.875857   21.401333
 N   20.514283    8.402413   22.379350
 C   20.371746    8.017515   23.734421
 C   21.109328    6.990814   24.330905
 C   20.888708    6.684733   25.672075
 C   19.954562    7.380163   26.430350
 C   19.226949    8.405443   25.830978
 C   19.433109    8.722028   24.493124
 N   23.584506    5.421380   20.538548
 C   23.798173    4.710524   21.790537
 C   22.611162    3.840671   22.214152
 C   22.304146    2.753329   21.186478
 C   21.123466    1.893125   21.633692
 C   21.382631    1.279803   23.008448
 C   21.685838    2.365993   24.038262
 C   22.868712    3.218387   23.584906
 C   21.872348    8.835627   16.696051
 N   22.227703    8.812332   15.591538
 H   19.962602   10.553011   18.125133
 H   19.939292    9.172489   22.059440
 H   21.840517    6.445038   23.756840
 H   21.460079    5.887168   26.127645
 H   19.795785    7.130042   27.469347
 H   18.495331    8.963651   26.398417
 H   18.864403    9.519733   24.029060
 H   24.076873    5.149608   19.703820
 H   24.023791    5.439882   22.573663
 H   24.683045    4.085943   21.659503
 H   21.729615    4.485622   22.288090
 H   23.189893    2.117616   21.066269
 H   22.097700    3.206334   20.211585
 H   20.926492    1.110013   20.898819
 H   20.224753    2.516702   21.683158
 H   22.240371    0.601785   22.942226
 H   20.526657    0.681160   23.326305
 H   21.893689    1.921743   25.013607
 H   20.805842    3.006789   24.159166
 H   23.074805    4.002682   24.320830
 H   23.764312    2.587098   23.526390
