61 
2q11_ligand_ani-2x.xyz
 C  196.640370    7.147971   19.909292
 N  198.037727    6.739900   19.945107
 C  198.842218    6.859315   21.044386
 O  199.848867    6.172604   21.220465
 C  198.441475    7.846700   22.130498
 C  197.930996    7.105463   23.380906
 N  196.815483    6.209891   23.109987
 C  195.458491    6.708161   23.301107
 C  194.549140    6.132705   22.250787
 C  193.412458    6.796199   21.807742
 C  192.575564    6.228094   20.847866
 C  191.331529    6.885068   20.333983
 O  190.396117    6.204228   19.950786
 C  191.235403    8.382586   20.294867
 C  192.336667    9.217565   20.089696
 C  192.166694   10.597233   20.034987
 C  190.898468   11.151959   20.182695
 C  189.794170   10.321819   20.364776
 C  189.961016    8.944258   20.404874
 C  192.869177    4.939442   20.375482
 C  194.007835    4.282630   20.790090
 C  194.890582    4.888665   21.702976
 N  196.079328    4.241418   22.025089
 C  196.992953    4.926047   22.653154
 N  198.213332    4.329269   22.936635
 C  198.451987    5.880916   18.823367
 C  199.828735    6.242366   18.245859
 C  200.106339    5.412950   16.988169
 C  200.011083    3.910897   17.278775
 C  198.656204    3.547445   17.896730
 C  198.385369    4.380738   19.151575
 H  196.473486    7.950971   19.179257
 H  196.017815    6.293374   19.613930
 H  196.295299    7.477109   20.886775
 H  197.702477    8.560685   21.762677
 H  199.339465    8.407356   22.406067
 H  197.601483    7.831739   24.129222
 H  198.745722    6.534194   23.835040
 H  195.469746    7.802499   23.229893
 H  195.099190    6.456307   24.312910
 H  193.160130    7.770889   22.222320
 H  193.327591    8.788167   19.965844
 H  193.029809   11.239653   19.885095
 H  190.769025   12.230380   20.147242
 H  188.800379   10.750895   20.467758
 H  189.110531    8.278003   20.520486
 H  192.185113    4.473427   19.672900
 H  194.265346    3.298731   20.404098
 H  198.244522    3.402835   22.528665
 H  199.020169    4.873452   22.646453
 H  197.711789    6.077467   18.030210
 H  200.595744    6.050951   19.002770
 H  199.857185    7.314387   18.017986
 H  201.094843    5.662154   16.583357
 H  199.375150    5.680004   16.210069
 H  200.808483    3.634157   17.984682
 H  200.186370    3.330187   16.364792
 H  198.621034    2.477706   18.136880
 H  197.858360    3.727472   17.160672
 H  197.409381    4.133700   19.591097
 H  199.144887    4.156747   19.913245
