61 
2q11_ligand_xtb.xyz
 C  196.851542    7.404516   19.754131
 N  198.100050    6.705092   19.952493
 C  198.894062    6.788300   21.034350
 O  199.860803    6.052811   21.193641
 C  198.573642    7.796420   22.133021
 C  197.923425    7.051882   23.316479
 N  196.789409    6.268135   22.888587
 C  195.472719    6.861648   23.046446
 C  194.484883    6.244482   22.094872
 C  193.349251    6.906464   21.688366
 C  192.429335    6.279927   20.842390
 C  191.193815    6.945517   20.395441
 O  190.205903    6.323396   20.048998
 C  191.204497    8.436696   20.370623
 C  192.307668    9.149331   19.907993
 C  192.268999   10.530905   19.856969
 C  191.136438   11.212372   20.272666
 C  190.031229   10.508354   20.722247
 C  190.060447    9.126772   20.759981
 C  192.672868    4.963766   20.437280
 C  193.821471    4.308761   20.812412
 C  194.754133    4.941015   21.642327
 N  195.920457    4.295479   21.948322
 C  196.885421    4.964846   22.502207
 N  198.052892    4.291030   22.728360
 C  198.441593    5.785030   18.858698
 C  199.814456    6.089453   18.257129
 C  200.051128    5.191176   17.046413
 C  199.955798    3.721016   17.443654
 C  198.597863    3.422266   18.072495
 C  198.367622    4.318247   19.285415
 H  196.935566    8.095693   18.910326
 H  196.063308    6.679145   19.537383
 H  196.548846    7.960871   20.632817
 H  197.949194    8.619677   21.795191
 H  199.527234    8.206894   22.469175
 H  197.589204    7.773043   24.067727
 H  198.663386    6.400883   23.786588
 H  195.543386    7.941341   22.872447
 H  195.126904    6.719460   24.087261
 H  193.154206    7.905321   22.054811
 H  193.185141    8.617303   19.568008
 H  193.124397   11.079891   19.489806
 H  191.113008   12.291789   20.237492
 H  189.144137   11.038097   21.036817
 H  189.203126    8.562662   21.095944
 H  191.942278    4.482410   19.804230
 H  194.030354    3.304429   20.479593
 H  198.020993    3.363927   22.330034
 H  198.925714    4.770932   22.554881
 H  197.688481    5.953067   18.081558
 H  200.584041    5.908677   19.006871
 H  199.862110    7.141139   17.963868
 H  201.035619    5.399811   16.623800
 H  199.304604    5.408977   16.278059
 H  200.743647    3.492623   18.164129
 H  200.107638    3.089052   16.566406
 H  198.550017    2.375293   18.376735
 H  197.808590    3.591841   17.335853
 H  197.393920    4.112188   19.736128
 H  199.143432    4.128560   20.026755
