79 
2q15_ligand_aiqm1.xyz
 C   -0.439051   -2.645819    1.622027
 N   -1.804631   -2.255885    1.311319
 C   -2.350374   -1.085065    1.714420
 O   -3.532679   -0.815802    1.534592
 C   -1.427362   -0.081318    2.398086
 C   -1.902813    1.350593    2.161953
 C   -2.068024    1.700968    0.668752
 C   -2.210606    3.210178    0.401827
 C   -3.374428    3.828053    1.182444
 C   -3.516603    5.321739    0.889989
 C   -3.679699    5.583900   -0.604698
 C   -2.516277    4.977120   -1.384781
 C   -2.393936    3.484300   -1.095644
 N   -0.953243    1.137063   -0.117745
 C    0.387155    1.655986    0.140214
 C    1.421815    0.610403   -0.149724
 C    2.661294    0.603925    0.483211
 C    3.589878   -0.384916    0.177161
 O    4.789403   -0.425543    0.859181
 C    5.871569    0.181184    0.266487
 C    5.813376    0.846917   -0.958105
 C    6.974324    1.431717   -1.464454
 C    8.174471    1.357231   -0.767152
 C    8.214046    0.687519    0.454430
 C    7.069169    0.099446    0.974150
 C    3.288049   -1.365583   -0.765402
 C    2.044934   -1.358492   -1.389818
 C    1.098633   -0.377172   -1.090232
 N   -0.149482   -0.428970   -1.706627
 C   -1.106160    0.254352   -1.155210
 N   -2.384535    0.005493   -1.605437
 C   -2.595680   -3.092206    0.392983
 C   -3.227044   -4.288516    1.105662
 C   -4.099064   -5.079562    0.132589
 C   -3.301346   -5.517761   -1.095382
 C   -2.660493   -4.316441   -1.788951
 C   -1.774049   -3.544860   -0.813496
 H   -0.363917   -3.729494    1.630024
 H   -0.152725   -2.285651    2.609363
 H    0.274834   -2.253127    0.887751
 H   -1.421191   -0.300536    3.469353
 H   -0.408304   -0.209753    2.039530
 H   -1.209989    2.048894    2.644710
 H   -2.873269    1.478782    2.642150
 H   -2.986821    1.217578    0.338726
 H   -1.285112    3.705925    0.725567
 H   -3.244788    3.673183    2.256313
 H   -4.299177    3.313964    0.895614
 H   -4.365506    5.728118    1.442629
 H   -2.624986    5.846160    1.249673
 H   -4.615436    5.131570   -0.949226
 H   -3.753212    6.656071   -0.797641
 H   -1.585158    5.475557   -1.095194
 H   -2.645808    5.142975   -2.456180
 H   -3.312432    2.979838   -1.428641
 H   -1.569343    3.048870   -1.668325
 H    0.566301    2.553148   -0.477842
 H    0.448909    1.979663    1.177981
 H    2.923691    1.357259    1.219347
 H    4.882496    0.906759   -1.504495
 H    6.934834    1.948850   -2.414257
 H    9.068048    1.813395   -1.168904
 H    9.141247    0.620136    1.008601
 H    7.080940   -0.424471    1.919891
 H    4.027816   -2.121730   -0.992783
 H    1.781862   -2.118467   -2.113579
 H   -2.391732   -0.531514   -2.456913
 H   -3.047906    0.759682   -1.577791
 H   -3.400188   -2.445759    0.037474
 H   -2.430920   -4.935671    1.499025
 H   -3.819493   -3.938808    1.954863
 H   -4.536133   -5.947969    0.632191
 H   -4.932885   -4.447851   -0.190075
 H   -3.943662   -6.064716   -1.789733
 H   -2.510946   -6.208331   -0.780743
 H   -3.447816   -3.651420   -2.161124
 H   -2.079130   -4.639022   -2.655383
 H   -1.318391   -2.678780   -1.293090
 H   -0.963618   -4.201080   -0.473565
