79 
2q15_ligand_xtb.xyz
 C   -0.288712   -2.714347    1.536160
 N   -1.619748   -2.262171    1.206634
 C   -2.059730   -1.010733    1.465612
 O   -3.213324   -0.671466    1.256400
 C   -1.030096   -0.046816    2.037187
 C   -1.488726    1.408168    1.911279
 C   -1.860508    1.791141    0.461949
 C   -1.957770    3.314784    0.251586
 C   -2.948459    3.967273    1.217645
 C   -3.032455    5.473123    0.976099
 C   -3.435806    5.775776   -0.462723
 C   -2.451328    5.127344   -1.429703
 C   -2.387334    3.622938   -1.186278
 N   -0.937812    1.196263   -0.487702
 C    0.467431    1.564080   -0.432824
 C    1.345501    0.351547   -0.580519
 C    2.612552    0.283477   -0.037248
 C    3.398582   -0.844240   -0.252808
 O    4.648449   -0.985146    0.314934
 C    5.535807    0.051183    0.269204
 C    5.508152    1.047112   -0.702097
 C    6.477964    2.032857   -0.702079
 C    7.480841    2.036039    0.251789
 C    7.516099    1.035661    1.209632
 C    6.551326    0.047927    1.223013
 C    2.896588   -1.907515   -0.994839
 C    1.620650   -1.850778   -1.516611
 C    0.825113   -0.720769   -1.318704
 N   -0.456992   -0.693265   -1.815777
 C   -1.281313    0.188995   -1.342133
 N   -2.586178    0.050701   -1.698898
 C   -2.487406   -3.156599    0.451927
 C   -2.959358   -4.356579    1.275561
 C   -3.957599   -5.172807    0.458310
 C   -3.332734   -5.629463   -0.857261
 C   -2.835978   -4.430459   -1.661012
 C   -1.828085   -3.625907   -0.845621
 H   -0.272035   -3.800919    1.515544
 H   -0.010795   -2.394424    2.540443
 H    0.456671   -2.345551    0.825041
 H   -0.879492   -0.280376    3.094711
 H   -0.079579   -0.190906    1.523487
 H   -0.702980    2.062121    2.296549
 H   -2.378446    1.543716    2.525121
 H   -2.840036    1.346565    0.277247
 H   -0.969841    3.758242    0.419785
 H   -2.641977    3.791799    2.249095
 H   -3.934244    3.517892    1.078904
 H   -3.754627    5.914364    1.665987
 H   -2.058542    5.925169    1.179388
 H   -4.438286    5.383656   -0.648770
 H   -3.463353    6.855343   -0.623559
 H   -1.459578    5.562349   -1.285482
 H   -2.754780    5.322539   -2.460509
 H   -3.378709    3.195563   -1.361118
 H   -1.691578    3.164497   -1.891985
 H    0.691468    2.275771   -1.249140
 H    0.674591    2.071781    0.510400
 H    3.000399    1.106810    0.547643
 H    4.736238    1.039665   -1.457964
 H    6.449935    2.801606   -1.460550
 H    8.233624    2.809697    0.245587
 H    8.298920    1.026021    1.953678
 H    6.566220   -0.739740    1.960321
 H    3.519061   -2.775936   -1.145385
 H    1.217121   -2.674752   -2.083047
 H   -2.764483   -0.658881   -2.386755
 H   -3.215232    0.830288   -1.649967
 H   -3.363782   -2.548827    0.201923
 H   -2.111694   -4.991194    1.544756
 H   -3.426123   -4.004583    2.197512
 H   -4.286117   -6.040000    1.035240
 H   -4.835471   -4.558357    0.247933
 H   -4.066497   -6.190894   -1.439352
 H   -2.493245   -6.296663   -0.647242
 H   -3.684550   -3.794233   -1.921907
 H   -2.373321   -4.770791   -2.589528
 H   -1.473469   -2.759863   -1.408489
 H   -0.967471   -4.259490   -0.621716
