93 
2q55_ligand_ani-2x.xyz
 O    1.749831   -1.142447    2.858169
 C    2.183090   -0.930261    1.723053
 C    3.636684   -0.508298    1.548951
 O    3.920962   -0.221681    0.182155
 C    4.542713    0.983868    0.050604
 O    4.909628    1.413454   -1.010611
 N    4.649152    1.565642    1.307138
 C    3.944168    0.787751    2.309148
 C    5.175583    2.838491    1.584943
 C    4.887678    3.457390    2.808673
 C    5.370165    4.729526    3.092194
 C    6.150809    5.411104    2.163877
 C    6.448218    4.793649    0.952405
 C    5.973540    3.521232    0.656827
 N    1.464014   -1.016767    0.595035
 C    0.092795   -1.530951    0.522695
 C   -0.009791   -2.962706    1.073468
 C    0.896793   -3.917753    0.333665
 C    0.606346   -4.296529   -0.981998
 C    1.452252   -5.166215   -1.665048
 C    2.060048   -4.399037    0.934105
 C    2.908825   -5.266063    0.250633
 C    2.602692   -5.654026   -1.049328
 C   -0.946639   -0.607795    1.199964
 O   -0.949017   -0.716213    2.602144
 C   -0.830742    0.862576    0.781327
 C   -0.818711    1.122607   -0.732687
 N   -1.867978    0.401265   -1.448032
 C   -3.192184    0.571289   -1.213759
 O   -3.659875    1.438735   -0.486845
 C   -4.071792   -0.471747   -1.936072
 C   -5.445888    0.099818   -2.308075
 C   -5.273875    1.278990   -3.269209
 C   -6.344513   -0.969799   -2.928108
 N   -4.123743   -1.685556   -1.113627
 C   -4.922526   -1.683760    0.109110
 C   -5.326450   -3.107458    0.459765
 C   -3.101880   -2.594373   -1.264063
 O   -2.134915   -2.399675   -2.007088
 N   -3.227165   -3.767857   -0.559244
 C   -4.062553   -3.936233    0.620758
 C   -0.868464    2.630478   -1.046653
 C    0.336897    3.378650   -0.531099
 C    0.219936    4.337803    0.477310
 C    1.335740    5.018111    0.957556
 C    2.597000    4.749262    0.433801
 C    2.724895    3.797100   -0.574614
 C    1.609311    3.112435   -1.041320
 H    4.286578   -1.324048    1.880168
 H    4.557391    0.606244    3.194468
 H    3.018173    1.283847    2.622611
 H    4.268836    2.955891    3.544792
 H    5.123832    5.191880    4.045340
 H    6.520722    6.409368    2.378090
 H    7.055122    5.313863    0.214896
 H    6.194587    3.065319   -0.300361
 H    1.969378   -0.875199   -0.267277
 H   -0.139874   -1.578611   -0.547307
 H   -1.057217   -3.283317    0.965225
 H    0.220783   -2.957432    2.140514
 H   -0.276125   -3.892915   -1.482675
 H    1.217520   -5.459979   -2.684888
 H    2.298971   -4.083551    1.949488
 H    3.807989   -5.640778    0.734149
 H    3.261169   -6.332392   -1.586558
 H   -1.935129   -0.970772    0.880028
 H   -0.019568   -0.788253    2.895209
 H   -1.684142    1.382439    1.229323
 H    0.079133    1.296019    1.217656
 H    0.119668    0.728506   -1.142643
 H   -1.613298   -0.474293   -1.896415
 H   -3.559810   -0.770865   -2.858497
 H   -5.913145    0.490636   -1.395216
 H   -6.250736    1.685393   -3.553050
 H   -4.767701    0.960266   -4.189425
 H   -4.691026    2.085830   -2.815010
 H   -7.316242   -0.542046   -3.196247
 H   -5.891375   -1.369106   -3.844726
 H   -6.522656   -1.810709   -2.251468
 H   -4.355938   -1.228023    0.937966
 H   -5.799911   -1.057390   -0.054568
 H   -5.944500   -3.526137   -0.342629
 H   -5.918693   -3.119317    1.380703
 H   -2.430930   -4.378457   -0.672874
 H   -4.292023   -5.000030    0.728631
 H   -3.525692   -3.618055    1.530867
 H   -0.936635    2.736733   -2.136891
 H   -1.792329    3.043429   -0.631704
 H   -0.762413    4.555284    0.894222
 H    1.209942    5.762393    1.741148
 H    3.481733    5.259936    0.811586
 H    3.701144    3.557193   -0.992652
 H    1.733473    2.363380   -1.823790
