20 
2q88_ligand_xtb.xyz
 O   -2.619051    0.574513    1.269712
 C   -1.734870    0.822392    0.496586
 O   -1.106892    2.003355    0.466252
 C   -1.216893   -0.141155   -0.570545
 C   -0.954180   -1.516033    0.056019
 C    0.254290   -1.404530    0.990764
 N    1.372331   -0.697404    0.421786
 C    1.196766    0.087678   -0.553762
 C    2.367792    0.820492   -1.132035
 N   -0.002556    0.306137   -1.201630
 H   -1.449821    2.585568    1.162679
 H   -2.010955   -0.221526   -1.326833
 H   -0.734342   -2.223079   -0.744950
 H   -1.837045   -1.848129    0.600365
 H    0.611029   -2.400861    1.268096
 H   -0.033939   -0.891874    1.917097
 H    2.235325    1.894316   -1.007598
 H    2.459847    0.602961   -2.194461
 H    3.271076    0.509699   -0.618370
 H   -0.067712    1.137481   -1.767872
