21 
2q89_ligand_xtb.xyz
 O    1.583324   -0.930395    1.270300
 C    1.716866   -0.564132    0.131441
 O    2.799152   -0.844714   -0.591800
 C    0.693267    0.229313   -0.662176
 N   -0.411435   -0.663552   -0.933254
 C   -1.424206   -0.658041   -0.162085
 C   -2.538790   -1.621975   -0.432313
 N   -1.632524    0.211084    0.865275
 C   -0.583044    1.101129    1.307308
 C    0.266286    1.505353    0.094574
 O   -0.426526    2.377515   -0.761559
 H    3.417849   -1.397238   -0.085733
 H    1.142593    0.501299   -1.623659
 H   -2.326080   -2.163436   -1.347824
 H   -3.485551   -1.093952   -0.530388
 H   -2.620101   -2.331590    0.389505
 H   -2.369743    0.010235    1.521234
 H   -1.034248    1.994929    1.747136
 H    0.063951    0.617556    2.050372
 H    1.145247    2.062617    0.432433
 H   -1.134360    1.879924   -1.189764
