21 
2q89_ligand_aiqm1.xyz
 O    1.655682   -1.364822    1.011198
 C    1.804206   -0.638487    0.061872
 O    3.016957   -0.301578   -0.421566
 C    0.690184    0.066103   -0.684322
 N   -0.431121   -0.850933   -0.880216
 C   -1.498485   -0.678023   -0.192162
 C   -2.671599   -1.592551   -0.388432
 N   -1.708706    0.355403    0.705547
 C   -0.540500    1.026668    1.249147
 C    0.336742    1.367563    0.060662
 O   -0.328101    2.269593   -0.804061
 H    3.667476   -0.765465    0.121188
 H    1.071744    0.341294   -1.666553
 H   -2.449216   -2.284372   -1.194390
 H   -3.566638   -1.018084   -0.629067
 H   -2.865013   -2.155692    0.525787
 H   -2.487236    0.232656    1.330494
 H   -0.854904    1.938652    1.755090
 H    0.006731    0.399648    1.959605
 H    1.250924    1.861591    0.386099
 H   -1.257199    2.012763   -0.816897
