57 
2q8s_ligand_ani-2x.xyz
 O   -6.777030   -1.239056   -1.048715
 C   -6.268549   -0.001094   -1.151076
 O   -6.900634    0.942298   -1.559154
 C   -4.802859    0.049754   -0.710211
 N   -3.969008   -0.445208   -1.799098
 C   -3.854448    0.122277   -3.043236
 C   -2.968287   -0.620658   -3.786571
 C   -2.514967   -1.686477   -2.959527
 C   -3.145042   -1.544088   -1.745880
 C   -4.422845    1.470880   -0.258490
 C   -3.081268    1.544813    0.428453
 C   -2.992793    1.573351    1.820656
 C   -1.760769    1.651922    2.459698
 C   -0.574389    1.714333    1.728480
 C   -0.665065    1.686721    0.333504
 C   -1.894343    1.588841   -0.305767
 C    0.767347    1.793834    2.422905
 C    1.080438    0.592375    3.329995
 C    1.010948   -0.759775    2.608844
 C    1.948688   -0.842147    1.444456
 C    1.691678   -1.073170    0.128537
 C    0.471183   -1.324559   -0.669649
 O    2.888195   -1.039546   -0.534552
 C    3.815894   -0.790802    0.419179
 N    3.318182   -0.658063    1.606197
 C    5.217877   -0.699201   -0.000250
 C    5.571025   -0.863412   -1.341947
 C    6.905127   -0.773136   -1.720009
 C    7.886666   -0.519905   -0.763769
 C    7.533868   -0.356541    0.573827
 C    6.201013   -0.445814    0.957274
 H   -7.690992   -1.186717   -1.374546
 H   -4.675020   -0.650910    0.120805
 H   -4.441061    0.992869   -3.311752
 H   -2.678338   -0.419630   -4.811314
 H   -1.809463   -2.468074   -3.220640
 H   -3.071406   -2.114122   -0.828677
 H   -5.209495    1.825230    0.413190
 H   -4.446842    2.124829   -1.136965
 H   -3.902763    1.541802    2.417711
 H   -1.723802    1.677180    3.548281
 H    0.247826    1.734066   -0.257763
 H   -1.948868    1.550975   -1.391886
 H    0.816498    2.709503    3.029244
 H    1.558958    1.884313    1.667715
 H    0.383815    0.578328    4.177188
 H    2.083866    0.720200    3.749860
 H    1.246992   -1.562208    3.319512
 H   -0.015501   -0.940820    2.263968
 H    0.484454   -2.314198   -1.141117
 H    0.374284   -0.582958   -1.470948
 H   -0.418260   -1.256885   -0.035544
 H    4.799572   -1.060628   -2.080387
 H    7.181688   -0.900584   -2.763901
 H    8.929403   -0.449783   -1.062085
 H    8.300313   -0.159160    1.318765
 H    5.908209   -0.321166    1.996582
