57 
2q8s_ligand_xtb.xyz
 O   -7.221983   -0.368998   -0.717942
 C   -6.307590    0.442306   -1.250483
 O   -6.471390    1.035688   -2.279296
 C   -5.043703    0.486595   -0.394689
 N   -4.114260   -0.491442   -0.902674
 C   -3.719215   -0.617960   -2.198867
 C   -2.770393   -1.599377   -2.268139
 C   -2.573163   -2.079525   -0.957501
 C   -3.412727   -1.373520   -0.142183
 C   -4.421247    1.898354   -0.404723
 C   -3.084970    1.845629    0.279013
 C   -3.005590    1.791994    1.664992
 C   -1.786807    1.628281    2.294206
 C   -0.614645    1.516041    1.555975
 C   -0.694292    1.601687    0.172863
 C   -1.913857    1.758034   -0.459533
 C    0.692004    1.243659    2.239546
 C    0.795036   -0.228606    2.660860
 C    0.714336   -1.185119    1.469258
 C    1.857352   -0.989408    0.534354
 C    1.873621   -0.931034   -0.833168
 C    0.822305   -1.045554   -1.872924
 O    3.163774   -0.745355   -1.221337
 C    3.878130   -0.696810   -0.075621
 N    3.138669   -0.838298    0.986270
 C    5.310510   -0.503073   -0.103315
 C    5.990909   -0.373361   -1.313311
 C    7.360327   -0.190873   -1.318155
 C    8.061021   -0.136105   -0.123933
 C    7.387512   -0.264532    1.081487
 C    6.019299   -0.447173    1.096955
 H   -8.009333   -0.427785   -1.283761
 H   -5.308836    0.193075    0.626378
 H   -4.150910   -0.014120   -2.972104
 H   -2.272935   -1.939685   -3.154777
 H   -1.897751   -2.855460   -0.654716
 H   -3.560690   -1.430688    0.918192
 H   -5.098574    2.584430    0.107033
 H   -4.313983    2.223364   -1.440294
 H   -3.908053    1.873721    2.255308
 H   -1.742974    1.580569    3.373127
 H    0.209170    1.534596   -0.414988
 H   -1.957569    1.802103   -1.538189
 H    0.783070    1.868852    3.130748
 H    1.521689    1.478912    1.571566
 H   -0.011458   -0.463406    3.358563
 H    1.749742   -0.383617    3.164166
 H    0.740773   -2.212301    1.844568
 H   -0.224032   -1.046009    0.928790
 H    0.853863   -2.030858   -2.339143
 H    0.984136   -0.301187   -2.650735
 H   -0.160120   -0.902011   -1.431968
 H    5.438825   -0.417781   -2.240090
 H    7.885285   -0.091081   -2.257026
 H    9.131649    0.006352   -0.132626
 H    7.935222   -0.221786    2.011454
 H    5.474723   -0.550146    2.021940
