24 
2q92_ligand_ani-2x.xyz
 O    1.760067   -0.141039    9.021963
 C    0.592054   -0.337016    8.374178
 O    0.569867   -0.650259    7.215303
 C   -0.632051   -0.141631    9.191380
 O   -1.795294   -0.287284    8.525350
 C   -0.891870    0.130295   10.505478
 C   -2.307190    0.169805   10.632199
 C   -2.822265   -0.086647    9.388681
 C   -4.160930   -0.315128    8.817500
 C   -4.234538   -1.039714    7.613104
 C   -5.444168   -1.463183    7.087955
 C   -6.636294   -1.177712    7.747932
 C   -6.605465   -0.425678    8.909687
 C   -5.392132    0.039063    9.399897
 N   -5.511514    1.005508   10.505877
 O   -4.723677    1.934551   10.531589
 O   -6.411662    0.829376   11.308412
 H    1.602168    0.123329    9.938152
 H   -0.188372    0.282057   11.312525
 H   -2.865437    0.364801   11.534971
 H   -3.312140   -1.282021    7.097318
 H   -5.454911   -2.034805    6.163148
 H   -7.585984   -1.526661    7.353004
 H   -7.516864   -0.170107    9.439896
