49 
2q9n_ligand_aiqm1.xyz
 C    6.736027    1.435959    0.334670
 C    5.643571    0.373880    0.330337
 C    4.308847    0.917888   -0.161122
 C    3.228797   -0.140118   -0.182695
 O    2.016987    0.465330   -0.609402
 C    0.927026   -0.445511   -0.670018
 C    0.849617   -1.156610   -2.014395
 C   -0.300913   -2.177880   -2.028742
 C   -1.451279   -1.785944   -1.081477
 C   -1.627943   -0.266468   -1.036762
 C   -0.340935    0.376748   -0.476329
 C   -0.745863    0.596529    0.974088
 C    0.264055    0.862181    2.046606
 O    0.056870    2.043662    2.645493
 O    1.164732    0.116860    2.336422
 N   -1.992153    0.514826    1.230726
 C   -2.698740    0.239118   -0.042812
 C   -3.893916   -0.658866    0.200819
 C   -4.816565   -0.141619    1.315238
 C   -5.297559    1.291772    1.109272
 C   -4.699208   -0.835294   -1.063044
 O   -4.490732   -0.235751   -2.092252
 H    6.463154    2.269647    0.984553
 H    6.892647    1.835703   -0.669216
 H    7.684341    1.030049    0.687684
 H    5.945900   -0.464055   -0.305242
 H    5.517982   -0.030259    1.338640
 H    4.422310    1.331380   -1.167545
 H    3.981022    1.738661    0.482942
 H    3.506801   -0.954529   -0.865906
 H    3.089418   -0.573657    0.815382
 H    1.026796   -1.188343    0.128116
 H    1.801637   -1.643317   -2.234131
 H    0.701407   -0.398969   -2.789642
 H    0.072913   -3.161396   -1.737058
 H   -0.679641   -2.271944   -3.047319
 H   -2.374864   -2.269210   -1.409979
 H   -1.252948   -2.161470   -0.070025
 H   -1.849739    0.086725   -2.044290
 H   -0.165770    1.357037   -0.925759
 H    0.752693    2.136251    3.309628
 H   -3.069417    1.196076   -0.408801
 H   -3.553402   -1.654185    0.497239
 H   -5.673433   -0.820620    1.385496
 H   -4.277288   -0.204132    2.260525
 H   -5.773063    1.434773    0.135202
 H   -6.025925    1.557934    1.876454
 H   -4.468224    1.993809    1.189144
 H   -5.535630   -1.562749   -0.999413
