30 
2qa8_ligand_aiqm1.xyz
 C   -8.465561   -3.623792   17.804147
 C   -8.358013   -4.412051   16.662029
 O   -9.344839   -4.268796   15.740926
 C   -7.303020   -5.300600   16.468189
 C   -6.317269   -5.405804   17.444057
 O   -5.314594   -6.259869   17.248042
 C   -6.386717   -4.618832   18.619934
 C   -5.366625   -4.712704   19.641256
 O   -4.389713   -5.465213   19.506683
 C   -5.587010   -3.870669   20.821562
 C   -6.678175   -3.079152   20.845792
 O   -7.603512   -2.972011   19.871369
 C   -7.474447   -3.748116   18.762289
 C   -4.668197   -3.872057   21.988448
 C   -5.185734   -3.896556   23.289866
 C   -4.352036   -3.877848   24.400998
 C   -2.972650   -3.830710   24.220372
 O   -2.193315   -3.809004   25.340299
 C   -2.438187   -3.808519   22.934313
 C   -3.281836   -3.830878   21.830226
 H   -9.291796   -2.943770   17.937001
 H   -9.175744   -4.854761   15.000267
 H   -7.225216   -5.914240   15.579216
 H   -4.731958   -6.184196   18.039882
 H   -6.911228   -2.428480   21.675889
 H   -6.258445   -3.952592   23.440654
 H   -4.753596   -3.907348   25.404606
 H   -1.271091   -3.804345   25.075878
 H   -1.363043   -3.781447   22.793703
 H   -2.855134   -3.832839   20.837807
