30 
2qa8_ligand_dft.xyz
 C   -3.442469   -1.393869    0.160042
 C   -4.405789   -0.397262    0.008730
 O   -5.697109   -0.794036    0.030078
 C   -4.053718    0.945067   -0.155465
 C   -2.713172    1.311221   -0.171116
 O   -2.397195    2.595054   -0.328094
 C   -1.702933    0.322450   -0.021902
 C   -0.293737    0.675243   -0.041163
 O    0.087408    1.850418   -0.167031
 C    0.638688   -0.450693    0.097916
 C    0.119292   -1.684624    0.273235
 O   -1.187894   -1.995756    0.294629
 C   -2.113197   -1.009252    0.140156
 C    2.105240   -0.260637    0.038069
 C    2.910295   -1.162176   -0.668923
 C    4.290435   -1.029484   -0.701599
 C    4.896441    0.031286   -0.029864
 O    6.250438    0.123667   -0.094945
 C    4.109225    0.949654    0.665873
 C    2.728866    0.803611    0.696646
 H   -3.725740   -2.430398    0.289141
 H   -6.270549   -0.025971   -0.082664
 H   -4.806415    1.718958   -0.271585
 H   -1.407737    2.650551   -0.309671
 H    0.725986   -2.570026    0.424199
 H    2.446273   -1.973070   -1.224332
 H    4.910198   -1.726694   -1.255102
 H    6.538719    0.905605    0.390866
 H    4.575014    1.783961    1.186109
 H    2.128262    1.529092    1.232131
