30 
2qa8_ligand_ani-2x.xyz
 C   -8.449284   -3.601961   17.776377
 C   -8.359659   -4.400311   16.639444
 O   -9.333999   -4.250822   15.710482
 C   -7.315495   -5.310490   16.468379
 C   -6.335287   -5.426972   17.450347
 O   -5.352394   -6.301439   17.262507
 C   -6.394327   -4.628358   18.618332
 C   -5.375283   -4.717669   19.661711
 O   -4.402565   -5.474516   19.551298
 C   -5.606005   -3.871009   20.842677
 C   -6.687798   -3.062174   20.843392
 O   -7.583790   -2.948098   19.845214
 C   -7.464793   -3.739557   18.740587
 C   -4.677305   -3.890785   22.003375
 C   -5.176763   -3.950519   23.313488
 C   -4.333559   -3.933694   24.412222
 C   -2.954792   -3.833729   24.224164
 O   -2.172803   -3.808301   25.335611
 C   -2.436019   -3.767948   22.932892
 C   -3.291923   -3.805871   21.841674
 H   -9.261491   -2.898799   17.905036
 H   -9.166198   -4.852550   14.974537
 H   -7.243742   -5.935869   15.583361
 H   -4.754150   -6.238263   18.043886
 H   -6.932969   -2.379429   21.651019
 H   -6.246862   -4.044558   23.483208
 H   -4.725599   -3.987178   25.423085
 H   -1.247384   -3.738011   25.069655
 H   -1.361135   -3.695454   22.776463
 H   -2.875327   -3.772867   20.841277
