39 
2qg2_ligand_xtb.xyz
 C    4.452733   29.192238   24.090951
 C    4.318737   30.707924   24.285482
 N    5.638719   31.046681   24.795398
 C    6.457184   29.937655   24.909479
 O    5.767386   28.850863   24.500530
 O    7.582697   29.912644   25.298969
 N    6.083760   32.251770   25.137016
 C    5.351033   33.290053   25.043764
 C    5.871857   34.585389   25.424369
 C    5.054564   35.728481   25.310943
 C    5.557570   36.978026   25.676077
 C    6.849543   37.097702   26.147685
 C    7.657691   35.972841   26.260813
 C    7.173994   34.730629   25.902803
 C    3.734615   35.613539   24.830543
 C    2.605794   35.493560   24.415852
 C    1.290718   35.328699   23.924189
 C    0.467101   36.431883   23.698388
 C   -0.813753   36.171549   23.219430
 N   -1.223744   34.933621   22.987099
 C   -0.358301   33.944077   23.225962
 N    0.880496   34.079478   23.690746
 C   -1.786331   37.273936   22.949986
 N   -0.775589   32.690904   22.933276
 H    4.332351   28.892602   23.045771
 H    3.746649   28.626820   24.706002
 H    3.545303   30.972390   25.013799
 H    4.119573   31.236680   23.347927
 H    4.320748   33.271229   24.683058
 H    4.922272   37.847105   25.584882
 H    7.230766   38.068411   26.428407
 H    8.667497   36.071785   26.629949
 H    7.785401   33.845861   25.982753
 H    0.810844   37.434686   23.891523
 H   -1.972109   37.840512   23.860975
 H   -1.380286   37.956268   22.205111
 H   -2.720450   36.856404   22.586530
 H   -1.751328   32.558856   22.737439
 H   -0.224905   31.918248   23.260224
