55 
2qh6_ligand_ani-2x.xyz
 C    1.263788    0.594880   -1.037534
 C    1.872334    1.070915   -2.187541
 C    2.015780    2.444989   -2.377485
 O    2.598952    2.977014   -3.483835
 C    1.528330    3.328145   -1.413899
 C    0.931957    2.837578   -0.268366
 C    0.803452    1.461124   -0.033317
 C    0.195026    0.980085    1.191748
 C   -0.927947    1.657437    1.946492
 O   -0.683591    1.223597    3.283644
 C   -2.283521    0.955725    1.686922
 C   -2.858234    0.954810    0.286808
 O   -3.812639    0.283031   -0.034828
 O   -2.244394    1.820877   -0.525823
 C   -2.735029    1.904169   -1.878631
 C   -1.602212    2.419547   -2.735734
 C   -2.017018   -0.432657    2.343850
 C   -2.102362   -1.633520    1.422525
 O   -2.640556   -2.674801    1.713406
 O   -1.487255   -1.413952    0.246007
 C   -1.952167   -2.200224   -0.871434
 C   -1.090942   -1.822562   -2.058040
 C   -0.608388   -0.169134    2.974273
 C    0.445695   -0.175087    1.908899
 C    1.477549   -1.186352    1.780316
 C    1.189001   -2.522973    2.098225
 C    2.143914   -3.517677    1.986510
 C    3.432636   -3.195589    1.563272
 O    4.336374   -4.208318    1.471692
 C    3.749699   -1.873824    1.257028
 C    2.783839   -0.884943    1.367225
 H    1.159317   -0.481690   -0.920472
 H    2.225873    0.369283   -2.939803
 H    2.887280    2.257297   -4.059110
 H    1.599834    4.396647   -1.597708
 H    0.561423    3.537375    0.478275
 H   -0.972140    2.747610    1.894932
 H   -3.029505    1.474333    2.300939
 H   -3.601466    2.575002   -1.887167
 H   -3.070939    0.909177   -2.188754
 H   -0.750156    1.735024   -2.700590
 H   -1.262608    3.398446   -2.381651
 H   -1.934168    2.516253   -3.774978
 H   -2.735833   -0.621270    3.144019
 H   -3.005809   -1.956222   -1.046421
 H   -1.870433   -3.260612   -0.614418
 H   -1.100655   -0.738234   -2.212977
 H   -1.459691   -2.309309   -2.966574
 H   -0.054535   -2.139443   -1.899700
 H   -0.392967   -0.748715    3.877404
 H    0.185237   -2.786931    2.430282
 H    1.913374   -4.549926    2.230054
 H    5.181505   -3.850788    1.171288
 H    4.753888   -1.612647    0.929673
 H    3.051004    0.137324    1.111482
