55 
2qh6_ligand_aiqm1.xyz
 C    1.195159    0.651883   -1.048238
 C    1.786147    1.119415   -2.216505
 C    2.069782    2.475527   -2.354641
 O    2.616495    3.001920   -3.492423
 C    1.782380    3.360152   -1.318356
 C    1.190020    2.882830   -0.153542
 C    0.888701    1.522695    0.001864
 C    0.223054    1.024457    1.208072
 C   -0.955635    1.722128    1.882179
 O   -0.819052    1.283617    3.237078
 C   -2.297289    1.007880    1.518837
 C   -2.793648    1.045760    0.097149
 O   -3.719741    0.389135   -0.310536
 O   -2.155326    1.964723   -0.635649
 C   -2.609912    2.082159   -2.000438
 C   -1.710597    3.090406   -2.672016
 C   -2.094899   -0.366781    2.202665
 C   -2.046996   -1.650233    1.421472
 O   -2.307611   -2.713642    1.934877
 O   -1.622995   -1.531874    0.164984
 C   -1.532867   -2.761222   -0.577394
 C   -1.279679   -2.370046   -2.011905
 C   -0.713835   -0.105503    2.943494
 C    0.398594   -0.122022    1.901990
 C    1.395489   -1.187826    1.774912
 C    1.067570   -2.519857    2.078018
 C    2.000567   -3.543197    1.950981
 C    3.293242   -3.246172    1.531796
 O    4.175590   -4.282781    1.416936
 C    3.645328   -1.931536    1.243085
 C    2.705188   -0.913609    1.366464
 H    0.970737   -0.402609   -0.945203
 H    2.018973    0.429886   -3.020399
 H    2.779597    2.291141   -4.115470
 H    2.010095    4.411103   -1.439438
 H    0.967874    3.583220    0.642787
 H   -0.990358    2.804788    1.824970
 H   -3.068315    1.538037    2.087942
 H   -3.654252    2.396664   -1.990840
 H   -2.554734    1.100695   -2.469666
 H   -0.673899    2.742547   -2.680366
 H   -1.754403    4.047299   -2.149644
 H   -2.039199    3.241103   -3.701309
 H   -2.859209   -0.519622    2.963728
 H   -2.463369   -3.313671   -0.453924
 H   -0.720532   -3.355033   -0.155925
 H   -2.099265   -1.754689   -2.380719
 H   -1.196888   -3.262400   -2.632490
 H   -0.354381   -1.797381   -2.096663
 H   -0.574225   -0.692478    3.845146
 H    0.063654   -2.768676    2.397240
 H    1.735794   -4.566785    2.177254
 H    5.027028   -3.934854    1.144117
 H    4.655069   -1.697203    0.925190
 H    3.000883    0.100833    1.138869
