55 
2qh6_ligand_xtb.xyz
 C    0.995099    0.742596   -1.157802
 C    1.522373    1.244298   -2.330508
 C    1.866159    2.589011   -2.423504
 O    2.385814    3.128915   -3.558401
 C    1.670184    3.422465   -1.325452
 C    1.130980    2.918206   -0.160522
 C    0.789609    1.569738   -0.055034
 C    0.189470    1.042630    1.157933
 C   -0.926272    1.757553    1.902034
 O   -0.759818    1.301947    3.228890
 C   -2.256974    1.046179    1.493659
 C   -2.533333    0.974175    0.007905
 O   -3.201846    0.132015   -0.530453
 O   -2.007732    2.022814   -0.622610
 C   -2.226302    2.106247   -2.033604
 C   -1.917472    3.520491   -2.485884
 C   -2.107371   -0.297955    2.240851
 C   -2.217001   -1.571874    1.429474
 O   -2.956163   -2.467926    1.749113
 O   -1.390580   -1.634221    0.390478
 C   -1.484779   -2.831093   -0.388693
 C   -0.365904   -2.854076   -1.410969
 C   -0.707600   -0.075165    2.915789
 C    0.340254   -0.126708    1.815405
 C    1.267954   -1.225014    1.646239
 C    0.962636   -2.499778    2.133268
 C    1.836039   -3.553145    1.968665
 C    3.057005   -3.356398    1.329129
 O    3.890494   -4.420168    1.184646
 C    3.385381   -2.086509    0.865795
 C    2.502614   -1.037693    1.022254
 H    0.718814   -0.296678   -1.086629
 H    1.668332    0.592814   -3.183089
 H    2.477341    2.447545   -4.235239
 H    1.945646    4.461943   -1.410072
 H    0.991370    3.572753    0.686007
 H   -0.956236    2.840664    1.842384
 H   -3.093063    1.607020    1.925242
 H   -3.264904    1.830044   -2.246378
 H   -1.567252    1.382325   -2.525562
 H   -0.886363    3.767928   -2.249205
 H   -2.571415    4.226975   -1.982139
 H   -2.068039    3.600871   -3.558466
 H   -2.861060   -0.378424    3.028037
 H   -2.467292   -2.843952   -0.871961
 H   -1.419829   -3.691397    0.286556
 H   -0.471101   -2.021328   -2.101276
 H   -0.413117   -3.782944   -1.972492
 H    0.598834   -2.790648   -0.912659
 H   -0.530276   -0.673207    3.804952
 H    0.020007   -2.674396    2.629722
 H    1.595103   -4.539284    2.332379
 H    4.704889   -4.143172    0.747614
 H    4.340613   -1.921493    0.383995
 H    2.775978   -0.055215    0.670586
