44 
2qlm_ligand_aiqm1.xyz
 C    4.341901    0.619660    0.788464
 C    5.544594    1.151475    1.228775
 C    5.571866    2.276674    2.062185
 C    6.879036    2.851884    2.535815
 C    4.354977    2.854476    2.432444
 C    3.145002    2.319502    2.003798
 C    3.129971    1.189193    1.183943
 C    1.876772    0.568600    0.682427
 O    1.848625   -0.136926   -0.313608
 N    0.753240    0.830657    1.440019
 C   -0.571645    0.440651    1.226829
 O   -1.423839    0.723587    2.062927
 N   -0.818188   -0.200498    0.070864
 C   -2.110156   -0.816041   -0.211302
 O   -1.831940   -1.731857   -1.245449
 C   -2.974089   -2.510077   -1.635804
 C   -2.488409   -3.489041   -2.681563
 O   -1.528884   -4.385190   -2.156976
 C   -4.061967   -1.579376   -2.156408
 O   -5.176946   -2.374118   -2.503937
 C   -4.412676   -0.576047   -1.079173
 O   -5.423039    0.270767   -1.596283
 C   -3.174917    0.195343   -0.650362
 O   -3.583744    1.092036    0.362174
 H    4.319753   -0.239159    0.131896
 H    6.475397    0.693352    0.916302
 H    7.502032    3.144989    1.690213
 H    6.714774    3.728246    3.162417
 H    7.439697    2.115921    3.113272
 H    4.352218    3.737111    3.060335
 H    2.221712    2.815858    2.280934
 H    0.875094    1.321136    2.309407
 H   -0.035588   -0.456569   -0.519039
 H   -2.474113   -1.332412    0.691844
 H   -3.359598   -3.059824   -0.764789
 H   -2.088474   -2.932774   -3.537813
 H   -3.333841   -4.085930   -3.016807
 H   -0.759279   -3.872556   -1.898922
 H   -3.682395   -1.035112   -3.033246
 H   -5.913864   -1.775547   -2.652607
 H   -4.793421   -1.118651   -0.202954
 H   -5.572924    0.961489   -0.946502
 H   -2.780503    0.757854   -1.508174
 H   -2.972321    1.047743    1.112534
