51 
2qln_ligand_dft.xyz
 C    7.321050   -0.910913   -0.481848
 C    8.711056   -0.890913   -0.453527
 C    9.382715    0.161734    0.161825
 C    8.656256    1.194703    0.747709
 C    7.266263    1.175808    0.717380
 C    6.580780    0.122429    0.102675
 C    5.097503    0.101492    0.070078
 C    4.367025    1.270087   -0.177860
 C    2.981191    1.250774   -0.207311
 C    4.393785   -1.087315    0.293429
 C    3.006646   -1.113881    0.252689
 C    2.287156    0.055635   -0.007191
 C    0.796980    0.113899   -0.060507
 O    0.185822    1.157479    0.121043
 N    0.160598   -1.078763   -0.343313
 C   -1.215448   -1.342425   -0.471371
 O   -1.549507   -2.473914   -0.816487
 N   -2.043099   -0.326861   -0.185079
 C   -3.470886   -0.318246   -0.463521
 O   -3.831255    0.990272   -0.091644
 C   -5.202614    1.322945   -0.298682
 C   -5.325914    2.800406    0.031195
 O   -4.498575    3.583745   -0.794658
 C   -6.068701    0.423277    0.575836
 O   -7.421898    0.733914    0.341163
 C   -5.768652   -1.018588    0.212353
 O   -6.550464   -1.848323    1.043370
 C   -4.285581   -1.352621    0.337460
 O   -4.169983   -2.667158   -0.141704
 H    6.804054   -1.724060   -0.984043
 H    9.270078   -1.696592   -0.919813
 H   10.468149    0.177244    0.184901
 H    9.172294    2.015842    1.236033
 H    6.706119    1.973783    1.196917
 H    4.893389    2.200153   -0.369903
 H    2.417994    2.158384   -0.396075
 H    4.938573   -1.996101    0.530560
 H    2.499073   -2.048895    0.474089
 H    0.713928   -1.884414   -0.596677
 H   -1.617544    0.576310    0.014988
 H   -3.648871   -0.485588   -1.539613
 H   -5.461903    1.167987   -1.357108
 H   -5.092182    2.946111    1.098013
 H   -6.356966    3.116593   -0.138249
 H   -3.607055    3.223129   -0.702055
 H   -5.801648    0.589794    1.632251
 H   -7.933330    0.008583    0.725664
 H   -6.051215   -1.165815   -0.843544
 H   -6.298725   -2.757589    0.829953
 H   -3.982494   -1.268750    1.393421
 H   -3.230995   -2.844597   -0.344495
