51 
2qln_ligand_ani-2x.xyz
 C    6.921028    1.997423    0.431547
 C    8.300340    2.169272    0.454202
 C    9.141614    1.117885    0.100253
 C    8.592794   -0.107428   -0.268278
 C    7.213474   -0.281085   -0.274375
 C    6.357759    0.769257    0.071584
 C    4.884477    0.586513    0.056730
 C    4.299701   -0.569564    0.585331
 C    2.924408   -0.733716    0.582050
 C    4.047670    1.564736   -0.493719
 C    2.671163    1.401882   -0.503017
 C    2.096486    0.258159    0.054528
 C    0.626484    0.020308    0.087711
 O    0.167206   -1.115098    0.132037
 N   -0.158230    1.156214    0.099381
 C   -1.556798    1.248445    0.159921
 O   -2.062542    2.359244    0.316300
 N   -2.231239    0.095306    0.023137
 C   -3.648534   -0.031300    0.310988
 O   -3.850867   -1.430519    0.303185
 C   -5.200923   -1.852455    0.514611
 C   -5.160366   -3.375218    0.574066
 O   -4.292691   -3.808173    1.594814
 C   -6.093855   -1.309389   -0.592986
 O   -7.418931   -1.713028   -0.330999
 C   -5.982155    0.202140   -0.607917
 O   -6.759897    0.688561   -1.679658
 C   -4.538471    0.656577   -0.742219
 O   -4.578587    2.053042   -0.602832
 H    6.266527    2.818857    0.715842
 H    8.718538    3.130410    0.741707
 H   10.219863    1.252834    0.111466
 H    9.240722   -0.935079   -0.544911
 H    6.788318   -1.237776   -0.570740
 H    4.933383   -1.339312    1.019535
 H    2.469065   -1.635455    0.979538
 H    4.483739    2.459773   -0.931294
 H    2.056198    2.160851   -0.980076
 H    0.288392    2.049378    0.259237
 H   -1.682190   -0.761366    0.025463
 H   -3.886543    0.385014    1.306741
 H   -5.556840   -1.470282    1.486468
 H   -4.855922   -3.770496   -0.410333
 H   -6.157994   -3.760216    0.797704
 H   -3.453662   -3.352018    1.437442
 H   -5.737959   -1.701798   -1.561576
 H   -7.975466   -1.265872   -0.983965
 H   -6.370751    0.584412    0.353312
 H   -6.641244    1.649346   -1.685991
 H   -4.161082    0.360836   -1.736891
 H   -3.695909    2.360466   -0.301553
