83 
2qn1_ligand_xtb.xyz
 O   -6.748627    0.772326    0.216079
 C   -5.387689    0.813653   -0.151005
 C   -4.693512    1.615774    0.954034
 O   -5.236985    2.916608    1.003627
 C   -3.197544    1.740020    0.705407
 C   -2.494852    0.378386    0.560530
 C   -2.461541   -0.303118    1.935101
 C   -1.061815    0.658201    0.018958
 C   -0.200802    1.469065    0.938939
 C    1.120864    1.505731    0.856856
 C    1.952503    0.787316   -0.165269
 C    3.065527   -0.127648    0.406365
 C    3.777483    0.368522    1.685235
 C    4.311661   -0.830749    2.477788
 C    4.913844    1.385412    1.473159
 C    4.415680    2.807446    1.215192
 C    5.870920    0.918618    0.376045
 C    5.135390    0.595143   -0.916189
 C    4.059109   -0.478992   -0.723964
 C    4.724761   -1.817653   -0.460712
 O    5.890807   -2.067767   -0.623857
 O    3.854898   -2.778527   -0.101019
 C    3.309047   -0.677417   -2.067149
 C    1.854792   -1.083915   -1.870782
 C    1.045238    0.029455   -1.176795
 C    0.679592    1.060370   -2.263657
 C   -0.232811   -0.554042   -0.466371
 C    0.158748   -1.465696    0.704370
 C   -1.082251   -1.388517   -1.436621
 C   -2.477555   -1.694340   -0.891311
 C   -3.229734   -0.401630   -0.562768
 C   -4.761298   -0.585236   -0.377764
 C   -5.167906   -1.553385    0.733853
 C   -5.336506   -1.138322   -1.706004
 O   -6.754175   -1.120774   -1.692206
 H   -7.189487    0.169725   -0.398211
 H   -5.280286    1.386629   -1.090495
 H   -4.898481    1.115471    1.912055
 H   -6.196231    2.812095    0.966343
 H   -3.070191    2.332251   -0.203259
 H   -2.775637    2.313231    1.529790
 H   -1.526584   -0.070571    2.437321
 H   -3.265263    0.058842    2.568932
 H   -2.555976   -1.380930    1.870111
 H   -1.243947    1.273603   -0.868415
 H   -0.697055    2.077578    1.679470
 H    1.661650    2.163543    1.521086
 H    2.465097    1.575217   -0.729647
 H    2.583545   -1.058166    0.695341
 H    3.021317    0.836262    2.322125
 H    5.111499   -1.336655    1.944495
 H    4.706265   -0.500842    3.436896
 H    3.518035   -1.550303    2.669041
 H    5.481931    1.424498    2.411045
 H    3.799209    3.149554    2.043997
 H    5.263950    3.483907    1.128336
 H    3.832070    2.878469    0.303644
 H    6.611608    1.697993    0.184392
 H    6.411846    0.031906    0.706577
 H    5.851756    0.237111   -1.658245
 H    4.671582    1.501024   -1.308584
 H    4.325914   -3.620588   -0.001423
 H    3.361271    0.252069   -2.635494
 H    3.825198   -1.435193   -2.662482
 H    1.410693   -1.293261   -2.845789
 H    1.835743   -2.009477   -1.300147
 H   -0.130895    0.719433   -2.901901
 H    1.541343    1.234121   -2.904494
 H    0.404513    2.017688   -1.828703
 H    0.869981   -2.224259    0.389840
 H    0.584734   -0.897537    1.524139
 H   -0.708507   -1.993177    1.079694
 H   -0.573560   -2.329973   -1.650335
 H   -1.207319   -0.861034   -2.382594
 H   -3.007866   -2.258606   -1.658283
 H   -2.411367   -2.334470   -0.013862
 H   -3.138779    0.238716   -1.451994
 H   -4.959122   -1.145804    1.714748
 H   -4.647688   -2.500916    0.621588
 H   -6.237063   -1.740986    0.668643
 H   -4.968033   -0.531116   -2.545157
 H   -5.000641   -2.171831   -1.849965
 H   -7.076232   -1.489561   -2.519965
