41 
2qnb_ligand_ani-2x.xyz
 O    1.970948    1.006873    0.077727
 C    1.546417   -0.278624    0.485568
 C    2.353275   -1.375874   -0.235238
 O    2.163511   -2.652631    0.316997
 C    3.845105   -1.111067   -0.120530
 O    4.574521   -2.008382   -0.928524
 C    4.197577    0.299991   -0.547252
 O    5.559429    0.572839   -0.305777
 C    3.362246    1.277999    0.268001
 C    3.564766    2.734874   -0.132584
 O    2.740298    3.579040    0.635488
 N    0.138966   -0.285657    0.129865
 C   -0.716464   -1.233505    0.545669
 O   -0.402215   -2.302317    1.068067
 N   -2.078923   -0.967456    0.341800
 C   -2.669617    0.209312   -0.072028
 O   -2.036928    1.227353   -0.326590
 C   -4.159876    0.184111   -0.156926
 C   -4.831459    1.396320    0.002165
 C   -6.219166    1.439536   -0.053084
 C   -6.942280    0.272917   -0.291071
 C   -6.273439   -0.934234   -0.481471
 C   -4.884938   -0.980537   -0.414912
 H    1.677275   -0.397341    1.576584
 H    2.065995   -1.350202   -1.301113
 H    1.232123   -2.724643    0.619920
 H    4.130692   -1.230122    0.940311
 H    4.303937   -2.897619   -0.657864
 H    3.946281    0.421649   -1.615368
 H    6.061134   -0.127780   -0.745632
 H    3.614992    1.166949    1.336187
 H    4.602185    3.024597    0.049929
 H    3.364993    2.847302   -1.212120
 H    1.845274    3.220617    0.550234
 H   -0.264819    0.598956   -0.169608
 H   -2.668689   -1.695802    0.721908
 H   -4.244547    2.295622    0.167724
 H   -6.738094    2.384703    0.084466
 H   -8.027683    0.305645   -0.336582
 H   -6.833670   -1.845825   -0.674950
 H   -4.374146   -1.921933   -0.606187
