21 
2qpq_ligand_aiqm1.xyz
 C   17.640931   -2.165482   63.791956
 O   17.026922   -2.853236   64.553051
 O   18.970782   -2.369003   63.612858
 C   17.017036   -1.082430   62.936398
 C   16.426093   -1.676409   61.635625
 O   15.466095   -2.661222   61.948146
 C   17.482425   -2.384572   60.799649
 C   16.909179   -2.818573   59.464206
 O   17.212232   -2.269474   58.432757
 O   16.009553   -3.795870   59.503067
 C   15.698481   -0.506625   60.932113
 O   16.231951    0.061367   59.849179
 O   14.697238   -0.077084   61.438067
 H   19.337051   -1.704810   63.021345
 H   17.735381   -0.297316   62.694848
 H   16.195949   -0.643262   63.500950
 H   14.675673   -2.220080   62.277252
 H   17.830563   -3.257806   61.348572
 H   18.328658   -1.723023   60.619774
 H   15.734994   -3.939595   60.422217
 H   16.805814   -0.538695   59.345771
