42 
2qrg_ligand_ani-2x.xyz
 C    7.013665   -0.617988    1.589735
 O    6.287842   -0.971221    0.432617
 C    4.974386   -0.630169    0.388066
 C    4.288285   -0.995873   -0.775066
 C    2.946789   -0.690751   -0.906822
 C    4.301887    0.043655    1.407554
 C    2.952523    0.346323    1.262504
 C    2.257231   -0.019571    0.110304
 C    0.834677    0.305311   -0.027075
 C   -0.070518   -0.117385   -1.159193
 N    0.238804    1.053711    0.827485
 O   -1.087725    1.219375    0.449040
 C   -1.428640    0.317512   -0.616150
 O   -2.103174   -0.796724   -0.096603
 C   -3.312320   -0.474419    0.608152
 C   -3.824999   -1.796318    1.159775
 O   -2.892561   -2.369880    2.044782
 C   -4.292337    0.207416   -0.341821
 O   -5.454207    0.545077    0.380480
 C   -3.637283    1.446881   -0.926361
 O   -4.528399    2.017038   -1.859798
 C   -2.313351    1.089722   -1.596103
 O   -1.670036    2.256296   -2.065140
 H    6.596657   -1.095069    2.486438
 H    8.031310   -0.976329    1.428787
 H    7.029275    0.469926    1.737333
 H    4.833034   -1.517252   -1.555904
 H    2.429699   -0.978177   -1.819984
 H    4.815103    0.339356    2.316395
 H    2.430833    0.875178    2.054516
 H   -0.044595   -1.188550   -1.374417
 H    0.184300    0.427714   -2.079374
 H   -3.082635    0.200980    1.444192
 H   -4.053027   -2.472475    0.318281
 H   -4.749364   -1.627911    1.718353
 H   -2.058704   -2.422741    1.556951
 H   -4.523369   -0.489386   -1.167029
 H   -6.014769    1.053974   -0.221801
 H   -3.435960    2.149524   -0.099138
 H   -4.037683    2.725576   -2.301102
 H   -2.523523    0.462882   -2.471517
 H   -1.307219    2.695159   -1.279445
