42 
2qrg_ligand_dft.xyz
 C   -7.359953    0.417748    0.551569
 O   -6.495102    0.125315   -0.525180
 C   -5.170053    0.023359   -0.274126
 C   -4.363895   -0.278281   -1.376603
 C   -2.994587   -0.401446   -1.221446
 C   -4.583710    0.198613    0.983659
 C   -3.208641    0.071704    1.125911
 C   -2.393107   -0.230146    0.031972
 C   -0.942347   -0.370768    0.188101
 C    0.025738   -0.641889   -0.930645
 N   -0.376633   -0.295089    1.336010
 O    1.004584   -0.481858    1.176691
 C    1.349141   -0.420786   -0.214565
 O    1.824423    0.845985   -0.563643
 C    3.017235    1.275595    0.109541
 C    3.273638    2.686083   -0.391221
 O    2.201207    3.541882   -0.080238
 C    4.148683    0.300751   -0.198453
 O    5.302811    0.724619    0.486390
 C    3.727547   -1.093224    0.238016
 O    4.770342   -1.983465   -0.098542
 C    2.419970   -1.495603   -0.437680
 O    1.982462   -2.758994    0.012647
 H   -7.126363    1.390065    1.002867
 H   -8.363632    0.450441    0.127078
 H   -7.317085   -0.360959    1.323161
 H   -4.835614   -0.410844   -2.344191
 H   -2.387660   -0.638055   -2.090761
 H   -5.183978    0.435561    1.854302
 H   -2.753328    0.210503    2.101035
 H   -0.075458    0.045101   -1.773427
 H   -0.073534   -1.672788   -1.287677
 H    2.832610    1.303155    1.189941
 H    3.461679    2.646779   -1.476791
 H    4.166131    3.083517    0.096086
 H    1.401480    3.091019   -0.381892
 H    4.319262    0.285872   -1.288414
 H    5.938830   -0.000740    0.421910
 H    3.573755   -1.074931    1.329461
 H    4.447539   -2.874598    0.092252
 H    2.597337   -1.593224   -1.513743
 H    1.614679   -2.608385    0.897550
