38 
2qrh_ligand_ani-2x.xyz
 C    3.815266   -0.483104    0.264039
 C    5.187812   -0.290481    0.163886
 C    5.707244    0.499345   -0.857845
 C    4.847255    1.092071   -1.779326
 C    3.474123    0.900567   -1.683288
 C    2.947177    0.113617   -0.654809
 C    1.494392   -0.084800   -0.554711
 C    0.773570   -0.808240    0.556689
 N    0.700287    0.320867   -1.476591
 O   -0.605138   -0.016508   -1.140575
 C   -0.677311   -0.479113    0.217838
 O   -1.128503    0.556841    1.048252
 C   -2.420418    1.073508    0.692560
 C   -2.671047    2.231210    1.647280
 O   -1.694696    3.233485    1.492780
 C   -3.462305   -0.036071    0.797706
 O   -4.712503    0.485996    0.410065
 C   -3.053005   -1.189066   -0.102303
 O   -3.985280   -2.233966    0.069368
 C   -1.643906   -1.664284    0.240459
 O   -1.237486   -2.679908   -0.652890
 H    3.421690   -1.106684    1.064190
 H    5.853098   -0.757723    0.885073
 H    6.780178    0.652621   -0.938564
 H    5.250001    1.707522   -2.580197
 H    2.799959    1.356587   -2.402124
 H    1.043616   -0.466091    1.558897
 H    0.962479   -1.889701    0.496926
 H   -2.394019    1.454538   -0.337974
 H   -2.695150    1.845737    2.680778
 H   -3.643238    2.681925    1.431635
 H   -0.839990    2.791956    1.595884
 H   -3.486406   -0.397081    1.841234
 H   -5.330225   -0.258477    0.398447
 H   -3.059362   -0.827446   -1.145258
 H   -3.631427   -2.992093   -0.418079
 H   -1.659227   -2.104947    1.244960
 H   -1.027605   -2.232410   -1.487913
