38 
2qrh_ligand_xtb.xyz
 C    3.801465   -0.428692    0.321474
 C    5.174940   -0.328972    0.198816
 C    5.734383    0.286835   -0.908533
 C    4.914077    0.805078   -1.899561
 C    3.542028    0.709189   -1.785309
 C    2.970053    0.090000   -0.671165
 C    1.528205   -0.007212   -0.561074
 C    0.791097   -0.615472    0.607035
 N    0.740537    0.409690   -1.472970
 O   -0.572053    0.191688   -1.133933
 C   -0.661422   -0.322660    0.207548
 O   -1.171881    0.641742    1.078254
 C   -2.492731    1.093006    0.779195
 C   -2.842741    2.142183    1.835875
 O   -2.014526    3.267216    1.751156
 C   -3.476601   -0.079595    0.793463
 O   -4.750810    0.390222    0.454880
 C   -2.994091   -1.142331   -0.199704
 O   -3.879457   -2.236545   -0.148152
 C   -1.564738   -1.569064    0.153434
 O   -1.076956   -2.515121   -0.761483
 H    3.375844   -0.911963    1.187800
 H    5.812084   -0.733423    0.971322
 H    6.807606    0.363192   -0.999130
 H    5.349451    1.285647   -2.762881
 H    2.888030    1.107015   -2.544523
 H    1.020638   -0.127618    1.552810
 H    0.978649   -1.687639    0.680054
 H   -2.504218    1.557419   -0.215628
 H   -2.766369    1.674586    2.828221
 H   -3.866315    2.480279    1.671346
 H   -1.102122    2.954520    1.726799
 H   -3.487910   -0.530669    1.800580
 H   -5.295562   -0.383902    0.260770
 H   -2.992202   -0.705782   -1.213324
 H   -3.424706   -3.000567   -0.525413
 H   -1.563543   -2.057521    1.134068
 H   -0.928234   -2.064557   -1.605616
