57 
2qt5_ligand_aiqm1.xyz
 N    1.223496   -1.112437    2.319871
 C    2.482886   -1.205390    1.529834
 C    2.454705   -0.063949    0.524008
 O    2.079953    1.038910    0.895389
 N    2.791740   -0.349332   -0.734549
 C    2.469905    0.597790   -1.799341
 C    0.948336    0.799960   -1.969935
 O    0.510258    1.812707   -2.480546
 C    3.102313    0.138498   -3.108436
 O    2.656644   -1.210465   -3.272078
 C    4.615929    0.226372   -3.079080
 N    0.169192   -0.215647   -1.510607
 C   -1.268797   -0.090146   -1.344276
 C   -1.479035    0.239772    0.138654
 O   -1.140755   -0.573671    1.005167
 C   -2.020372   -1.356450   -1.789781
 C   -1.223587   -2.670835   -1.747613
 C   -0.761740   -3.040407   -0.366981
 O   -1.704286   -3.674684    0.328694
 O    0.337856   -2.787237    0.094623
 N   -1.931759    1.461818    0.435060
 C   -1.902415    2.018576    1.795086
 C   -0.426034    2.054137    2.214545
 O    0.247924    2.968750    1.531555
 C   -2.796789    1.284214    2.798640
 C   -2.811118    2.039061    4.126459
 C   -4.214442    1.153781    2.248918
 O    0.083623    1.296130    3.013324
 H    1.089812   -0.158876    2.699571
 H    1.220547   -1.788722    3.078884
 H    0.409908   -1.285499    1.703377
 H    3.336445   -1.076316    2.186185
 H    2.541138   -2.166596    1.040962
 H    2.992591   -1.300152   -1.003064
 H    2.859218    1.577577   -1.536686
 H    2.709647    0.772022   -3.906124
 H    2.913819   -1.515599   -4.141340
 H    5.033088   -0.124953   -4.020980
 H    4.933840    1.257071   -2.935029
 H    5.030291   -0.380428   -2.271939
 H    0.611302   -1.012189   -1.077367
 H   -1.593353    0.751272   -1.951660
 H   -2.315700   -1.217636   -2.827539
 H   -2.931260   -1.459751   -1.200171
 H   -1.870511   -3.467252   -2.103699
 H   -0.354309   -2.612541   -2.399684
 H   -1.361938   -3.855707    1.212659
 H   -2.119426    2.097113   -0.323115
 H   -2.231216    3.051710    1.697441
 H    1.194880    2.787471    1.630748
 H   -2.374011    0.290706    2.951356
 H   -1.813365    2.123765    4.557315
 H   -3.446749    1.518682    4.840727
 H   -3.219963    3.042590    3.987766
 H   -4.252234    0.539514    1.347095
 H   -4.625494    2.137548    2.010597
 H   -4.860227    0.695248    2.994911
