27 
2qw1_ligand_dft.xyz
 O    3.804622   -0.280762    0.237281
 C    2.712554   -1.040718   -0.221915
 C    1.395739   -0.451345    0.257226
 O    1.366180    0.891698   -0.219397
 C    0.171886   -1.191491   -0.272588
 O    0.184458   -2.505643    0.228112
 C   -1.114278   -0.474548    0.140582
 O   -2.159499   -1.205393   -0.461213
 C   -3.425869   -1.069115    0.155106
 C   -1.057234    0.992033   -0.272298
 O   -2.160414    1.682636    0.270295
 C    0.245041    1.602879    0.248063
 O    0.297676    2.906139   -0.228560
 H    3.621794    0.629220   -0.031478
 H    2.694299   -1.102081   -1.321895
 H    2.822573   -2.051600    0.175093
 H    1.380234   -0.455126    1.358947
 H    0.219942   -1.188904   -1.374206
 H   -0.678165   -2.876043   -0.007241
 H   -1.207680   -0.527534    1.238729
 H   -3.366673   -1.300291    1.228647
 H   -3.825583   -0.058657    0.033629
 H   -4.085759   -1.791344   -0.330718
 H   -1.040949    1.056198   -1.370593
 H   -2.039893    2.612884    0.035895
 H    0.236180    1.580329    1.353807
 H    1.038466    3.357380    0.194172
