41 
2qyl_ligand_ani-2x.xyz
 C   38.539891   30.935166   -5.256027
 C   39.294937   30.428461   -4.197588
 C   39.379863   31.123711   -3.001490
 C   38.687131   32.325519   -2.835324
 C   37.826229   32.123503   -5.083839
 C   38.770906   33.099266   -1.562286
 C   39.611340   35.197876    2.789487
 C   39.847070   33.013946   -0.710710
 C   39.840524   33.753804    0.490686
 C   40.882692   33.683259    1.451107
 C   38.489840   30.132256   -6.520906
 O   38.182066   30.800337   -7.655488
 O   38.708554   28.949706   -6.559001
 C   37.893594   32.807094   -3.880668
 N   37.719333   33.911654   -1.313895
 C   40.766243   34.403410    2.605376
 N   38.644862   35.305390    1.912954
 C   38.734506   34.594197    0.765591
 C   37.680862   34.658088   -0.233158
 C   36.491326   35.535310   -0.110236
 C   35.345558   35.129842   -0.804574
 C   36.470823   36.757646    0.569345
 C   35.325345   37.549347    0.559180
 C   34.182611   37.143074   -0.119978
 C   34.222213   35.929788   -0.790597
 N   33.037765   35.478880   -1.532888
 O   32.044538   36.183736   -1.491359
 O   33.121125   34.428554   -2.145797
 H   39.812587   29.483956   -4.333681
 H   39.968965   30.709542   -2.187749
 H   37.175293   32.506908   -5.868949
 H   39.503656   35.778404    3.704256
 H   40.706827   32.395814   -0.950640
 H   41.748538   33.053635    1.260165
 H   38.183983   31.754052   -7.496948
 H   37.340188   33.730000   -3.732077
 H   41.531078   34.377027    3.375457
 H   35.343311   34.195536   -1.349268
 H   37.351051   37.075761    1.117478
 H   35.319616   38.494882    1.093325
 H   33.279664   37.741566   -0.138584
