41 
2qyl_ligand_xtb.xyz
 C   38.575566   31.002487   -5.262688
 C   39.402842   30.526715   -4.247169
 C   39.499519   31.198096   -3.046336
 C   38.783274   32.376649   -2.838571
 C   37.858790   32.180596   -5.059174
 C   38.850224   33.121032   -1.574207
 C   39.547645   35.183852    2.810966
 C   39.899803   33.017278   -0.684958
 C   39.846708   33.746190    0.514904
 C   40.855771   33.681926    1.502713
 C   38.521852   30.224088   -6.534131
 O   37.416146   30.375344   -7.284655
 O   39.403663   29.488037   -6.883312
 C   37.966088   32.857917   -3.862126
 N   37.811181   33.940690   -1.341494
 C   40.708950   34.404134    2.652990
 N   38.603648   35.274118    1.917864
 C   38.725693   34.586263    0.768471
 C   37.722698   34.656350   -0.247668
 C   36.525426   35.505639   -0.159886
 C   35.437849   35.181585   -0.969051
 C   36.439173   36.629639    0.662188
 C   35.288647   37.402271    0.686113
 C   34.206365   37.079651   -0.110239
 C   34.297425   35.965962   -0.938719
 N   33.183844   35.621327   -1.788149
 O   32.174416   36.286304   -1.690950
 O   33.323890   34.690001   -2.552300
 H   39.956739   29.616858   -4.421607
 H   40.120798   30.792161   -2.262935
 H   37.237744   32.600734   -5.839761
 H   39.393141   35.757449    3.716055
 H   40.762641   32.403237   -0.891608
 H   41.720606   33.056138    1.332398
 H   36.760534   30.951148   -6.868649
 H   37.419286   33.773019   -3.698854
 H   41.453430   34.381503    3.433373
 H   35.485500   34.319380   -1.615852
 H   37.277676   36.889411    1.286791
 H   35.239650   38.266880    1.329984
 H   33.301658   37.667843   -0.109059
