41 
2qyl_ligand_dft.xyz
 C   -4.715256   -0.423207    0.085328
 C   -4.512247    0.848039   -0.453369
 C   -3.243018    1.404507   -0.477330
 C   -2.142935    0.700959    0.027337
 C   -3.616719   -1.141552    0.563386
 C   -0.774622    1.281434    0.023110
 C    3.433225    3.803667   -0.218333
 C   -0.539440    2.633420   -0.060746
 C    0.793016    3.097408   -0.097461
 C    1.133249    4.468729   -0.226100
 C   -6.113415   -0.965771    0.080056
 O   -6.387221   -1.946407    0.967196
 O   -6.971907   -0.563583   -0.661320
 C   -2.344688   -0.587377    0.531172
 N    0.242184    0.387396    0.135027
 C    2.451891    4.823111   -0.285809
 N    3.158381    2.528374   -0.087955
 C    1.852203    2.160283   -0.015729
 C    1.497501    0.775600    0.132508
 C    2.502002   -0.318241    0.264159
 C    2.163005   -1.574146   -0.244970
 C    3.729440   -0.163044    0.918303
 C    4.603563   -1.238274    1.053808
 C    4.277697   -2.484760    0.537499
 C    3.053810   -2.624803   -0.104591
 N    2.686808   -3.938688   -0.650799
 O    3.493031   -4.848145   -0.526259
 O    1.598848   -4.045647   -1.194574
 H   -5.363713    1.383467   -0.859481
 H   -3.109685    2.385861   -0.921645
 H   -3.727761   -2.159791    0.929416
 H    4.487547    4.066220   -0.278768
 H   -1.352522    3.351463   -0.090453
 H    0.343628    5.212834   -0.283534
 H   -5.653999   -2.053771    1.586819
 H   -1.489807   -1.150382    0.887572
 H    2.756138    5.859138   -0.389397
 H    1.213374   -1.727914   -0.740992
 H    4.003099    0.803606    1.319402
 H    5.548401   -1.100617    1.569035
 H    4.942105   -3.335321    0.624419
