41 
2qyn_ligand_xtb.xyz
 C    4.483773   -0.823581   51.881095
 C    5.543483   -0.365424   52.661547
 C    5.659411   -0.744698   53.982467
 C    4.703916   -1.578984   54.562250
 C    3.526208   -1.656804   52.457218
 C    4.790432   -2.013898   55.962451
 C    5.582107   -3.047190   60.682279
 C    5.503551   -1.333550   56.927720
 C    5.551651   -1.857155   58.230532
 C    6.280832   -1.252068   59.279475
 C    4.423455   -0.371328   50.460750
 O    3.739866   -1.156254   49.609089
 O    4.958143    0.631900   50.074855
 C    3.636585   -2.025307   53.782069
 N    4.101862   -3.130222   56.254471
 C    6.294853   -1.845596   60.509840
 N    4.892014   -3.626380   59.741430
 C    4.846754   -3.058992   58.522734
 C    4.098003   -3.649005   57.457523
 C    3.284283   -4.865111   57.603625
 C    2.963132   -5.575110   56.448044
 C    2.794585   -5.319472   58.828520
 C    2.015476   -6.463730   58.898672
 C    1.700883   -7.173328   57.755396
 C    2.179183   -6.713059   56.532952
 N    1.849507   -7.431750   55.326657
 O    1.218324   -8.461107   55.439019
 O    2.219000   -6.962374   54.271158
 H    6.273580    0.284408   52.203572
 H    6.506760   -0.403977   54.557267
 H    2.668642   -1.999330   51.892609
 H    5.583600   -3.551078   61.640489
 H    6.012887   -0.407057   56.712237
 H    6.820055   -0.335407   59.085764
 H    3.404113   -1.958497   50.031125
 H    2.896971   -2.665006   54.236841
 H    6.840623   -1.419050   61.336856
 H    3.327435   -5.238231   55.490017
 H    3.034354   -4.773124   59.725579
 H    1.647428   -6.801013   59.855383
 H    1.094577   -8.065463   57.786320
