30 
2r0y_ligand_aiqm1.xyz
 O    1.205270   -1.284770    0.563190
 C    2.217905   -0.708411    0.123250
 C    3.265723   -1.453960   -0.654726
 N    2.409111    0.600123    0.295051
 C    1.522938    1.446296    1.089865
 C    0.431728    2.137909    0.270028
 C   -0.548797    1.188187   -0.419755
 C   -1.429270    0.443111    0.591880
 C   -2.158836   -0.780468    0.023223
 N   -1.177186   -1.862179   -0.325195
 C   -2.903563   -0.445606   -1.255833
 O   -3.866659    0.435904   -1.053050
 O   -2.598620   -0.938602   -2.314484
 H    3.370872   -2.450557   -0.238926
 H    2.947608   -1.549087   -1.691948
 H    4.225878   -0.944514   -0.631017
 H    3.260265    1.001463   -0.064996
 H    1.098618    0.818477    1.872111
 H    2.135203    2.203838    1.568800
 H    0.903538    2.764715   -0.487201
 H   -0.114412    2.805611    0.935713
 H   -1.180927    1.758573   -1.102641
 H    0.007745    0.476885   -1.040277
 H   -0.824345    0.089518    1.422264
 H   -2.177415    1.124002    0.993689
 H   -2.866765   -1.147645    0.753462
 H   -1.417603   -2.746550    0.113452
 H   -0.198005   -1.605244   -0.012914
 H   -1.247753   -1.983008   -1.343249
 H   -4.291946    0.605993   -1.906567
