30 
2r0y_ligand_xtb.xyz
 O    1.283332   -1.388366    0.360348
 C    2.252919   -0.735525   -0.041751
 C    3.350009   -1.356869   -0.855667
 N    2.393877    0.565860    0.217596
 C    1.509900    1.330526    1.075889
 C    0.438308    2.095950    0.292561
 C   -0.585529    1.178639   -0.380406
 C   -1.542530    0.551535    0.639718
 C   -2.214396   -0.726857    0.132966
 N   -1.237101   -1.829049   -0.028913
 C   -2.841854   -0.521955   -1.256667
 O   -3.772406    0.395445   -1.273180
 O   -2.465420   -1.181152   -2.190871
 H    3.125643   -2.403855   -1.038070
 H    3.457112   -0.840383   -1.807219
 H    4.294898   -1.287754   -0.320898
 H    3.197510    1.045769   -0.158009
 H    1.054687    0.630572    1.779982
 H    2.116822    2.038520    1.642196
 H    0.929669    2.701712   -0.469867
 H   -0.072816    2.773129    0.976800
 H   -1.159602    1.763036   -1.100250
 H   -0.051935    0.410194   -0.941175
 H   -1.009636    0.302283    1.557508
 H   -2.318979    1.271840    0.896453
 H   -3.010307   -1.015096    0.824876
 H   -1.444075   -2.646103    0.546370
 H   -0.216250   -1.538407    0.182370
 H   -1.290605   -2.097029   -1.036343
 H   -4.170947    0.513392   -2.153147
