65 
2r1y_ligand_xtb.xyz
 C    1.434906   -1.383305   -1.891798
 O    1.647216   -0.831036   -2.930149
 O    0.890349   -2.597404   -1.800123
 C    1.825941   -0.836608   -0.502734
 C    3.161660   -1.507826   -0.138711
 C    3.774884   -0.841990    1.090301
 O    5.058418   -1.399459    1.278195
 C    3.893330    0.675440    0.840680
 O    4.847544    0.926338   -0.154733
 C    2.504660    1.211557    0.465075
 O    1.959051    0.543695   -0.658245
 C    2.473902    2.715628    0.171608
 O    1.137442    3.146338    0.288879
 C    3.022064    3.053678   -1.216307
 O    2.773146    4.434297   -1.424228
 C   -0.516022    1.685735   -3.069765
 C   -1.729992    1.913167   -2.604843
 C   -2.011250    2.180648   -1.155037
 O   -2.542794    0.973328   -0.604518
 C   -2.344384    0.739257    0.770283
 C   -2.876506    1.887284    1.653909
 O   -4.182989    2.237629    1.303623
 C   -0.871178    0.427254    1.091616
 O   -3.148250   -0.367894    1.095924
 C   -2.843665   -1.555108    0.389896
 C   -3.831852   -2.616327    0.907157
 O   -3.793079   -2.765996    2.301849
 C   -3.626048   -3.989997    0.243534
 O   -4.638850   -4.872138    0.647307
 C   -1.364866   -1.961156    0.543890
 O   -1.098906   -2.434008    1.845984
 C   -0.458395   -0.759628    0.227504
 O    0.889876   -1.177687    0.483961
 H    0.689507   -2.944723   -2.685979
 H    3.847944   -1.391699   -0.979252
 H    2.995721   -2.566863    0.051015
 H    3.133258   -1.020713    1.963355
 H    5.415620   -1.104200    2.123501
 H    4.202528    1.172702    1.778848
 H    5.485312    0.195462   -0.125978
 H    1.859585    1.040219    1.340433
 H    3.087022    3.228893    0.929639
 H    1.091131    3.990692   -0.182646
 H    4.091146    2.828375   -1.247013
 H    2.502210    2.446610   -1.964421
 H    3.099908    4.675367   -2.295703
 H    0.347233    1.698024   -2.424658
 H   -0.331336    1.464936   -4.107385
 H   -2.596842    1.867885   -3.248748
 H   -1.085480    2.464446   -0.646571
 H   -2.753045    2.981261   -1.039136
 H   -2.824553    1.549191    2.698241
 H   -2.258533    2.778627    1.532569
 H   -4.684181    1.416216    1.220022
 H   -0.794327    0.162585    2.146897
 H   -0.247607    1.294552    0.886087
 H   -3.022228   -1.396121   -0.683350
 H   -4.846367   -2.268022    0.677251
 H   -2.862900   -2.738203    2.569015
 H   -2.643726   -4.390770    0.533761
 H   -3.679209   -3.912605   -0.844242
 H   -4.778828   -4.715534    1.592275
 H   -1.145914   -2.758271   -0.184041
 H   -0.139403   -2.416105    1.954546
 H   -0.569113   -0.486216   -0.827516
