65 
2r1y_ligand_aiqm1.xyz
 C    1.519011   -1.401012   -1.894371
 O    1.841959   -0.878222   -2.919692
 O    0.850682   -2.569126   -1.835584
 C    1.898222   -0.900564   -0.485002
 C    3.215401   -1.573594   -0.104824
 C    3.773356   -0.954518    1.160249
 O    5.055343   -1.535952    1.393445
 C    3.924674    0.552925    0.959892
 O    4.915813    0.818302   -0.012437
 C    2.578412    1.141479    0.544544
 O    2.036077    0.490238   -0.604383
 C    2.587785    2.639070    0.279352
 O    1.231925    3.062702    0.385626
 C    3.162780    3.065171   -1.055873
 O    2.910992    4.476269   -1.131524
 C   -1.088845    2.226826   -3.562118
 C   -2.174993    2.003477   -2.819635
 C   -2.195703    2.164748   -1.338185
 O   -2.478923    0.873380   -0.785320
 C   -2.287289    0.725737    0.612174
 C   -2.747281    1.922355    1.432874
 O   -4.080846    2.283144    1.150539
 C   -0.812742    0.420967    0.904320
 O   -3.106472   -0.351095    1.001499
 C   -2.790511   -1.608851    0.408373
 C   -3.799891   -2.610300    0.959672
 O   -3.804814   -2.722328    2.371599
 C   -3.601530   -4.004370    0.373949
 O   -4.575857   -4.882912    0.898213
 C   -1.326009   -1.995688    0.636236
 O   -1.136450   -2.283528    2.021739
 C   -0.422922   -0.854012    0.179958
 O    0.939257   -1.244569    0.480873
 H    0.709768   -2.841973   -2.750848
 H    3.930152   -1.407485   -0.911745
 H    3.064208   -2.645410    0.023489
 H    3.102873   -1.143991    2.000535
 H    5.281213   -1.412138    2.316710
 H    4.212822    1.006023    1.918316
 H    5.611582    0.168670    0.135531
 H    1.909632    0.978007    1.396648
 H    3.172896    3.109254    1.079071
 H    1.196942    3.943439    0.001381
 H    4.229754    2.861585   -1.094683
 H    2.659051    2.539586   -1.864653
 H    3.085794    4.764534   -2.025791
 H   -0.155317    2.533630   -3.103202
 H   -1.109521    2.111218   -4.637892
 H   -3.101816    1.675781   -3.279872
 H   -1.222965    2.528735   -0.984591
 H   -2.975710    2.868943   -1.033389
 H   -2.614696    1.671867    2.491992
 H   -2.117930    2.780394    1.206195
 H   -4.605942    1.484118    1.231871
 H   -0.695092    0.275408    1.981587
 H   -0.184250    1.247688    0.585412
 H   -2.926672   -1.557194   -0.678481
 H   -4.797257   -2.258836    0.684562
 H   -2.890627   -2.643329    2.671162
 H   -2.593170   -4.367291    0.619711
 H   -3.713562   -3.996626   -0.711330
 H   -4.636778   -4.663014    1.833304
 H   -1.089004   -2.884247    0.039468
 H   -0.212442   -2.506201    2.150059
 H   -0.534650   -0.717592   -0.895905
