65 
2r1y_ligand_ani-2x.xyz
 C    1.538440   -1.379497   -2.011584
 O    1.914111   -0.856941   -3.028884
 O    0.826538   -2.525275   -2.013342
 C    1.864115   -0.890599   -0.588283
 C    3.193495   -1.514691   -0.179556
 C    3.744849   -0.881815    1.086494
 O    5.050338   -1.409413    1.287342
 C    3.824055    0.638656    0.902256
 O    4.788692    0.953655   -0.072395
 C    2.449728    1.160935    0.499135
 O    1.960469    0.507193   -0.675146
 C    2.392479    2.670152    0.285863
 O    1.034309    3.082310    0.406181
 C    2.922047    3.143921   -1.064615
 O    2.681393    4.552229   -1.093460
 C   -0.399653    1.553725   -3.036169
 C   -1.662559    1.811717   -2.704268
 C   -2.057236    2.150952   -1.293575
 O   -2.564825    0.958365   -0.694351
 C   -2.288859    0.744530    0.675556
 C   -2.704283    1.929642    1.551481
 O   -3.995236    2.377324    1.234732
 C   -0.815790    0.398569    0.874939
 O   -3.100052   -0.326965    1.077264
 C   -2.872917   -1.554371    0.391499
 C   -3.838859   -2.568794    1.014719
 O   -3.721904   -2.705116    2.419499
 C   -3.729691   -3.965850    0.406253
 O   -4.660951   -4.815093    1.029865
 C   -1.402311   -1.981334    0.448146
 O   -1.090831   -2.413704    1.761534
 C   -0.478210   -0.833879    0.048724
 O    0.858246   -1.287773    0.314278
 H    0.719001   -2.753630   -2.950841
 H    3.914086   -1.357048   -0.987138
 H    3.069539   -2.593121   -0.044630
 H    3.088992   -1.114553    1.937350
 H    5.322828   -1.220627    2.194253
 H    4.096561    1.102891    1.868807
 H    5.524980    0.341420    0.082686
 H    1.778915    0.936260    1.339208
 H    2.982343    3.156376    1.077690
 H    1.026596    3.993915    0.073084
 H    3.987140    2.915983   -1.174491
 H    2.353911    2.637849   -1.858483
 H    2.674384    4.838656   -2.013065
 H    0.395330    1.601492   -2.291181
 H   -0.103113    1.243312   -4.035181
 H   -2.464998    1.696706   -3.427217
 H   -1.161021    2.515296   -0.762367
 H   -2.838957    2.923154   -1.248159
 H   -2.619399    1.629988    2.607148
 H   -2.025054    2.775199    1.392121
 H   -4.571028    1.601206    1.273619
 H   -0.626919    0.199351    1.936503
 H   -0.203293    1.248269    0.564698
 H   -3.144692   -1.431914   -0.668573
 H   -4.853241   -2.193291    0.839743
 H   -2.771510   -2.696837    2.622322
 H   -2.703805   -4.348833    0.546959
 H   -3.949405   -3.948629   -0.667285
 H   -4.590055   -4.597124    1.972906
 H   -1.225166   -2.800292   -0.264971
 H   -0.123058   -2.411985    1.816703
 H   -0.619132   -0.612506   -1.011550
