65 
2r23_ligand_xtb.xyz
 O    2.113000   -2.643584   -1.880303
 C    1.528899   -2.633032   -0.700984
 O    0.850148   -3.529817   -0.270449
 C    1.853572   -1.383296    0.131990
 O    2.076449   -0.305887   -0.725489
 C    2.539313    0.869236   -0.064983
 C    2.548871    1.979458   -1.132797
 C    1.468101    3.025974   -0.841225
 O    1.483445    3.959279   -1.901240
 O    3.816344    2.595294   -1.197349
 C    3.900995    0.602398    0.593110
 O    4.866748    0.191864   -0.346089
 C    3.701821   -0.517233    1.638170
 O    4.884807   -0.820494    2.310099
 C    3.132193   -1.769103    0.941400
 O    4.088691   -2.367512    0.121407
 O    0.834590   -1.130356    1.066830
 C   -2.968984    1.657463    2.319382
 O   -3.053929    2.839688    2.501891
 O   -3.496372    0.746085    3.119663
 C   -2.201400    1.000291    1.154402
 C   -1.014571    0.212606    1.726492
 C   -0.330469   -0.484521    0.558604
 C   -1.330187   -1.457670   -0.097000
 O   -1.633813   -2.530335    0.752026
 C   -2.595327   -0.671718   -0.500294
 O   -3.120691    0.147237    0.530448
 C   -3.760333   -1.580745   -0.936319
 O   -4.297002   -2.322160    0.122707
 C   -3.366287   -2.532899   -2.081665
 O   -4.500536   -3.212333   -2.546897
 O   -1.659712    1.948933    0.275049
 C   -2.583735    2.819305   -0.389873
 C   -2.006696    3.173709   -1.724638
 C   -1.799964    4.410598   -2.139383
 H    1.970552   -3.493312   -2.332628
 H    1.840910    1.141275    0.738661
 H    2.323543    1.504282   -2.099940
 H    0.490741    2.541666   -0.751363
 H    1.703190    3.527473    0.109234
 H    0.658230    4.457452   -1.885021
 H    3.694234    3.412190   -1.698817
 H    4.235210    1.514234    1.106540
 H    4.961676    0.917515   -0.978998
 H    2.990879   -0.172780    2.394790
 H    5.476925   -1.253377    1.678131
 H    2.839880   -2.512039    1.689990
 H    4.450728   -1.673241   -0.460229
 H   -4.001674    1.164068    3.837833
 H   -0.324226    0.889165    2.227436
 H   -1.384442   -0.534485    2.428200
 H   -0.044571    0.257354   -0.195435
 H   -0.889218   -1.830800   -1.035486
 H   -0.815743   -3.039046    0.876884
 H   -2.304601   -0.037890   -1.353689
 H   -4.575706   -0.935211   -1.287049
 H   -3.554881   -2.651140    0.653135
 H   -2.953474   -1.981343   -2.929145
 H   -2.620428   -3.253025   -1.714954
 H   -5.001927   -3.482151   -1.764221
 H   -2.746238    3.713326    0.220091
 H   -3.539230    2.295950   -0.522175
 H   -1.747647    2.330013   -2.350817
 H   -1.407121    4.622510   -3.119844
 H   -2.053096    5.260098   -1.526140
