91 
2r2b_ligand_aiqm1.xyz
 C   -4.042570   -0.570715    2.685193
 O   -5.125965   -1.340033    2.840959
 O   -3.504118    0.004853    3.589596
 C   -3.571984   -0.480184    1.219651
 C   -2.072090   -0.205947    1.180301
 C   -1.597891   -0.281683   -0.257662
 C   -1.927660   -1.661131   -0.837420
 O   -1.272398   -2.711690   -0.161211
 C   -3.439695   -1.866026   -0.732118
 O   -3.885844   -1.718014    0.626094
 C   -3.921894   -3.222256   -1.265866
 O   -5.217154   -3.069631   -1.825579
 C   -3.931488   -4.347898   -0.238192
 O   -5.076453   -4.263631    0.606143
 O   -4.199592    0.588523    0.560992
 C   -5.636474    0.620665    0.613740
 C   -6.094976    1.588927   -0.420928
 C   -6.764886    2.701950   -0.119440
 C   -0.045878    0.166054   -2.663478
 O   -1.128103    0.715439   -3.214463
 O    0.555136   -0.751857   -3.154976
 C    0.343786    0.757583   -1.298224
 O   -0.158856   -0.081211   -0.275519
 C    1.856930    0.750241   -1.189390
 C    2.239458    1.330115    0.160866
 C    1.734213    2.774262    0.228882
 O    2.327962    3.590368   -0.768110
 C    0.217098    2.723526    0.028165
 O   -0.168982    2.053536   -1.185454
 C   -0.500500    4.063671    0.060782
 O   -1.869618    3.857239    0.411077
 C   -0.416713    4.915560   -1.189880
 O   -1.039162    6.167369   -0.940856
 C    3.446050    0.244074    2.528489
 O    3.569942   -0.911963    3.181948
 O    2.944161    1.230849    2.990929
 C    4.098311    0.197933    1.128603
 O    3.664476    1.295902    0.357001
 C    5.609969    0.284088    1.322825
 C    6.355472   -0.030043    0.040992
 O    7.739766   -0.118253    0.373502
 C    5.868987   -1.362995   -0.525510
 O    6.197820   -2.435006    0.335199
 C    4.357579   -1.291749   -0.719655
 O    3.703231   -1.012372    0.534018
 C    3.747618   -2.550591   -1.384379
 O    3.193157   -2.157834   -2.628194
 C    2.734851   -3.294550   -0.533994
 O    1.549735   -2.523952   -0.355238
 H   -5.350827   -1.307232    3.780626
 H   -1.867946    0.772230    1.613685
 H   -1.562783   -0.969290    1.769521
 H   -2.083708    0.492483   -0.854661
 H   -1.658943   -1.664578   -1.903035
 H   -0.317313   -2.621738   -0.269137
 H   -3.912823   -1.085511   -1.339659
 H   -3.245169   -3.488335   -2.082203
 H   -5.828325   -3.364619   -1.140706
 H   -4.018615   -5.298110   -0.764786
 H   -3.009021   -4.340800    0.339035
 H   -4.934361   -3.523080    1.203175
 H   -6.027018   -0.381934    0.433153
 H   -5.949646    0.952117    1.609579
 H   -5.847436    1.355716   -1.451625
 H   -7.100759    3.385407   -0.886586
 H   -6.998603    2.947588    0.909322
 H   -1.273372    0.255707   -4.051843
 H    2.264178    1.370947   -1.990001
 H    2.217001   -0.262611   -1.311681
 H    1.753017    0.759356    0.951546
 H    1.938059    3.171796    1.226758
 H    3.267108    3.640756   -0.578474
 H   -0.165237    2.144446    0.875591
 H   -0.083498    4.629359    0.894558
 H   -2.284182    3.326638   -0.275925
 H   -0.903504    4.398743   -2.026818
 H    0.615285    5.117592   -1.457337
 H   -1.867861    5.973233   -0.493522
 H    3.196999   -0.769089    4.062121
 H    5.885430    1.270693    1.695695
 H    5.885718   -0.467873    2.062471
 H    6.186865    0.754038   -0.700523
 H    8.249824   -0.020328   -0.432055
 H    6.334064   -1.513336   -1.508870
 H    7.091341   -2.263614    0.650322
 H    4.198412   -0.455517   -1.401507
 H    4.575175   -3.226752   -1.607430
 H    2.245131   -1.987896   -2.531403
 H    2.427457   -4.187810   -1.074535
 H    3.173781   -3.581156    0.422225
 H    1.770756   -1.785194    0.227770
