34 
2r2w_ligand_aiqm1.xyz
 C   33.914530    5.002478   28.233726
 C   31.701045    6.184162   28.420091
 C   31.206266    5.785834   29.662721
 C   30.813943    6.714257   27.478486
 C   27.479757    6.569447   29.318181
 C   26.959998    7.968802   29.011706
 C   27.278191    9.091896   29.937921
 C   26.718840   10.345150   29.658467
 C   26.982710   11.434369   30.478503
 C   27.813368   11.287565   31.588058
 C   28.378673   10.047432   31.871376
 C   28.113811    8.951009   31.053402
 N   33.075041    6.105206   28.109063
 N   35.155253    4.990370   27.923795
 N   33.332326    3.872549   28.777155
 C   29.844121    5.899747   29.937931
 C   28.952515    6.433681   29.005519
 C   29.460480    6.840785   27.767463
 O   26.300835    8.160438   28.009189
 H   31.883108    5.368741   30.395965
 H   31.189155    7.038725   26.513303
 H   26.899375    5.889954   28.690448
 H   27.292155    6.316396   30.362657
 H   26.080572   10.440955   28.790223
 H   26.544248   12.397721   30.252741
 H   28.021169   12.136142   32.227099
 H   29.029606    9.929518   32.726523
 H   28.573582    8.000995   31.288608
 H   33.414200    6.800972   27.469151
 H   35.471963    5.910295   27.634639
 H   33.945502    3.076375   28.713303
 H   32.381013    3.686467   28.498505
 H   29.477171    5.565254   30.902840
 H   28.792379    7.252409   27.021444
