34 
2r2w_ligand_ani-2x.xyz
 C   33.964711    5.022158   28.316623
 C   31.641561    6.019775   28.202178
 C   31.189392    5.733830   29.494951
 C   30.737533    6.550166   27.275877
 C   27.479865    6.668539   29.235989
 C   27.013250    8.094119   28.962229
 C   27.291634    9.167604   29.971603
 C   26.760948   10.436423   29.729181
 C   26.988109   11.473215   30.624791
 C   27.751045   11.252194   31.769311
 C   28.285278    9.990687   32.014785
 C   28.055672    8.949876   31.120279
 N   32.970647    5.840635   27.782510
 N   35.220941    5.184841   28.155971
 N   33.498819    3.960392   29.081490
 C   29.856265    5.953982   29.821882
 C   28.941948    6.457651   28.897012
 C   29.411773    6.756517   27.616808
 O   26.437699    8.358026   27.924607
 H   31.878725    5.354434   30.241398
 H   31.084276    6.784596   26.272115
 H   26.847958    6.025856   28.612716
 H   27.279946    6.397867   30.278490
 H   26.170432   10.587661   28.829967
 H   26.570205   12.458059   30.430310
 H   27.928554   12.064802   32.469050
 H   28.878725    9.812881   32.907800
 H   28.478800    7.968917   31.321374
 H   33.286060    6.474752   27.064110
 H   35.420302    6.011028   27.595050
 H   34.246555    3.304725   29.268072
 H   32.661185    3.513491   28.730824
 H   29.527075    5.703878   30.829492
 H   28.721010    7.162523   26.881354
