31 
2r3h_ligand_ani-2x.xyz
 C   -0.194504   30.180525    7.679241
 N    0.605124   29.116317    8.043734
 C    1.784351   29.249704    7.350810
 N    1.787689   30.317424    6.572941
 C    0.567865   30.885011    6.781410
 C    0.413675   28.042441    8.905670
 C    1.421252   27.148399    9.029227
 N    2.625893   27.224268    8.363375
 C    2.800894   28.245246    7.554993
 N    3.965715   28.435079    6.893686
 C    5.003717   27.418982    6.814598
 C    4.848995   26.512403    5.614087
 C    3.855407   25.536643    5.594890
 C    3.710482   24.746372    4.460354
 N    4.471614   24.860756    3.370147
 C    5.419861   25.797458    3.397423
 C    5.647971   26.639171    4.481495
 C   -1.569049   30.392294    8.224022
 H    0.278660   31.795726    6.268562
 H   -0.533872   27.988841    9.425478
 H    1.309995   26.296871    9.691709
 H    3.941593   29.140403    6.167708
 H    4.960176   26.834792    7.737638
 H    5.969404   27.930982    6.778109
 H    3.208313   25.391805    6.454114
 H    2.941129   23.976825    4.427162
 H    6.036263   25.882878    2.503347
 H    6.440932   27.381898    4.439034
 H   -2.232797   29.552659    7.982650
 H   -1.556961   30.513000    9.314449
 H   -1.998490   31.297227    7.789234
