31 
2r3h_ligand_aiqm1.xyz
 C   -0.291557   30.167069    7.783574
 N    0.558713   29.150569    8.134863
 C    1.651148   29.234094    7.316463
 N    1.558823   30.237253    6.459278
 C    0.355979   30.814849    6.749178
 C    0.472158   28.155072    9.099081
 C    1.506493   27.282978    9.184965
 N    2.629728   27.317181    8.388703
 C    2.697194   28.268534    7.485941
 N    3.773060   28.399164    6.675911
 C    4.887804   27.475860    6.658259
 C    4.848770   26.522500    5.483183
 C    3.699446   25.787769    5.187205
 C    3.712735   24.915184    4.102971
 N    4.771912   24.728813    3.306389
 C    5.867459   25.438446    3.596588
 C    5.953149   26.336466    4.656190
 C   -1.593784   30.388706    8.467075
 H   -0.000789   31.674026    6.205020
 H   -0.411221   28.139287    9.715412
 H    1.475491   26.492103    9.921255
 H    3.696508   29.093906    5.950787
 H    4.860580   26.919758    7.593199
 H    5.819870   28.048164    6.629903
 H    2.809600   25.893462    5.795974
 H    2.828981   24.336114    3.859751
 H    6.720943   25.284135    2.946066
 H    6.873237   26.882007    4.829968
 H   -2.247419   29.519118    8.368188
 H   -1.454611   30.583900    9.532737
 H   -2.099100   31.245913    8.027223
