45 
2r3n_ligand_aiqm1.xyz
 C   -0.004719   30.578205    8.342857
 C    0.691349   29.387198    8.551811
 N    1.892986   29.539598    7.883266
 N    2.020039   30.734946    7.264096
 C    0.860413   31.345490    7.552967
 N    0.393302   28.257923    9.232849
 C    1.296236   27.298405    9.230408
 C    2.539412   27.397930    8.535864
 C    2.834449   28.554080    7.850037
 N    3.954609   28.818457    7.137727
 C    0.959886   26.070437    9.990900
 C    5.103616   27.940433    7.139591
 C    5.002004   26.766453    6.183153
 C    4.009076   26.669186    5.206247
 N    3.903716   25.653813    4.341713
 C    4.807850   24.676167    4.429705
 C    5.836066   24.665983    5.369280
 C    5.930894   25.726919    6.259525
 C   -0.367290   25.850913   10.378273
 C   -0.716198   24.707540   11.086657
 C    0.256170   23.769423   11.425274
 C    1.581151   23.986129   11.056177
 C    1.932598   25.128128   10.343093
 C   -1.354377   30.968168    8.811933
 C   -2.511614   30.000368    8.730379
 C   -1.950444   30.390395   10.069440
 H    0.687682   32.340965    7.172031
 H    3.232485   26.574694    8.498005
 H    4.019075   29.738578    6.732937
 H    5.271747   27.556377    8.149324
 H    5.976623   28.538541    6.883688
 H    3.259001   27.446463    5.123182
 H    4.702335   23.865074    3.719604
 H    6.540605   23.846188    5.400708
 H    6.717841   25.752590    7.004501
 H   -1.110800   26.592856   10.119587
 H   -1.746133   24.549030   11.377880
 H   -0.014354   22.878418   11.976834
 H    2.343764   23.266724   11.325072
 H    2.970185   25.290482   10.079805
 H   -1.601329   32.003668    8.609960
 H   -2.287571   29.002911    8.377082
 H   -3.477079   30.393418    8.441911
 H   -2.534773   31.053057   10.694116
 H   -1.361982   29.644778   10.585350
