45 
2r3n_ligand_ani-2x.xyz
 C   -0.022291   30.665770    8.366352
 C    0.678652   29.440383    8.497516
 N    1.859894   29.621349    7.811036
 N    1.974719   30.860864    7.260829
 C    0.848630   31.463367    7.602528
 N    0.400040   28.284448    9.113160
 C    1.330313   27.325439    9.058720
 C    2.539149   27.449210    8.343875
 C    2.813457   28.641944    7.702215
 N    3.899039   28.952397    6.957736
 C    1.011302   26.074986    9.798609
 C    5.093483   28.127897    6.956078
 C    4.940358   26.805714    6.230223
 C    4.045497   26.635040    5.173150
 N    3.888486   25.493592    4.500226
 C    4.633034   24.453041    4.872458
 C    5.556822   24.505322    5.910502
 C    5.709438   25.704297    6.595139
 C   -0.316780   25.776663   10.111366
 C   -0.640182   24.607992   10.789895
 C    0.364463   23.727165   11.179402
 C    1.693253   24.024161   10.887994
 C    2.014471   25.189641   10.201587
 C   -1.355218   30.963348    8.916892
 C   -2.433566   29.908912    8.906796
 C   -1.811939   30.318939   10.201115
 H    0.671995   32.484437    7.284896
 H    3.227764   26.620406    8.243959
 H    3.985972   29.938543    6.742867
 H    5.434617   27.914977    7.981766
 H    5.881992   28.724641    6.484098
 H    3.426720   27.470700    4.853100
 H    4.484190   23.532366    4.310020
 H    6.141028   23.627977    6.175168
 H    6.425526   25.786846    7.411104
 H   -1.094027   26.475389    9.815808
 H   -1.679777   24.387342   11.019232
 H    0.113601   22.813969   11.712133
 H    2.485214   23.344218   11.191716
 H    3.059810   25.412046    9.999413
 H   -1.695364   31.985723    8.756550
 H   -2.137879   28.935389    8.525221
 H   -3.449550   30.215489    8.679396
 H   -2.383420   30.922818   10.899095
 H   -1.124436   29.602343   10.643860
