45 
2r3n_ligand_xtb.xyz
 C    0.072207   30.485452    8.217886
 C    0.824920   29.341516    8.504277
 N    2.071013   29.569015    7.929370
 N    2.141300   30.748370    7.314196
 C    0.941915   31.296864    7.488573
 N    0.552368   28.218249    9.157813
 C    1.498590   27.305413    9.250686
 C    2.776264   27.475937    8.668553
 C    3.062121   28.644090    7.995635
 N    4.238286   28.998036    7.419983
 C    1.147463   26.082922    9.984145
 C    5.297143   28.055694    7.161546
 C    4.875371   26.908653    6.273208
 C    4.027729   27.110069    5.187485
 N    3.623932   26.143877    4.385224
 C    4.044165   24.913813    4.621631
 C    4.890199   24.591948    5.672326
 C    5.309131   25.610357    6.511507
 C   -0.198254   25.744929   10.129009
 C   -0.568961   24.604474   10.813152
 C    0.397531   23.782335   11.370027
 C    1.735676   24.115454   11.244583
 C    2.110499   25.255712   10.558301
 C   -1.318769   30.764964    8.589357
 C   -2.339890   29.659100    8.532790
 C   -1.885305   30.181959    9.855461
 H    0.743556   32.268250    7.078449
 H    3.510582   26.692797    8.720265
 H    4.177504   29.841535    6.866991
 H    5.663856   27.659588    8.116109
 H    6.119577   28.601137    6.690166
 H    3.651451   28.097254    4.950117
 H    3.684223   24.157087    3.937681
 H    5.208623   23.573810    5.833121
 H    5.967091   25.401353    7.344363
 H   -0.940156   26.396360    9.694830
 H   -1.614785   24.353574   10.914261
 H    0.109734   22.889132   11.904906
 H    2.492567   23.484592   11.688377
 H    3.157712   25.511009   10.493520
 H   -1.647888   31.757497    8.304462
 H   -1.989697   28.683035    8.236002
 H   -3.334590   29.900434    8.189208
 H   -2.564497   30.787999   10.436107
 H   -1.233005   29.551854   10.439143
