43 
2r7b_ligand_ani-2x.xyz
 C   89.198228   14.105223   15.008494
 O   88.635717   15.334833   14.605599
 C   87.370733   15.296006   14.127245
 C   86.823344   16.557580   13.714969
 O   87.665158   17.613194   13.816649
 C   87.182826   18.858183   13.366341
 C   85.527121   16.621968   13.266776
 C   84.702282   15.459828   13.203981
 C   83.307814   15.451274   12.821814
 C   82.401247   16.577879   12.867888
 C   81.187264   16.455615   12.148577
 N   80.797964   15.278634   11.526024
 C   80.296731   17.545336   12.029397
 C   79.080086   17.451105   11.154304
 C   80.542427   18.698980   12.758240
 N   79.682714   19.792670   12.641593
 C   81.688134   18.786574   13.580608
 C   82.587462   17.753026   13.637493
 C   82.797613   14.231154   12.384981
 C   81.545511   14.230572   11.649622
 N   81.124760   13.039505   11.085120
 C   83.510085   13.028804   12.694053
 N   84.684377   13.003537   13.247971
 C   85.301093   14.213062   13.472748
 C   86.617561   14.164490   13.994469
 H   88.614478   13.644143   15.815663
 H   89.272445   13.404697   14.166617
 H   90.199231   14.337709   15.373751
 H   86.907645   18.818750   12.304358
 H   86.314042   19.182679   13.952957
 H   87.999008   19.568730   13.504030
 H   85.124012   17.566244   12.913485
 H   79.113847   16.527519   10.571951
 H   78.149189   17.439469   11.742994
 H   79.012996   18.307488   10.467623
 H   78.722690   19.558823   12.431865
 H   79.747785   20.459119   13.396527
 H   81.855271   19.691636   14.160620
 H   83.435980   17.835694   14.311224
 H   80.340828   13.163405   10.454933
 H   81.867636   12.482277   10.685942
 H   83.043746   12.061638   12.497861
 H   86.997618   13.179748   14.240740
