43 
2r7b_ligand_xtb.xyz
 C   89.265168   14.162147   14.910053
 O   88.616834   15.366178   14.582528
 C   87.344567   15.297853   14.114898
 C   86.756409   16.551951   13.768959
 O   87.582522   17.625753   13.898757
 C   87.083083   18.896465   13.567255
 C   85.456266   16.602587   13.333964
 C   84.673920   15.437444   13.212537
 C   83.300342   15.423929   12.811807
 C   82.416816   16.550409   12.830955
 C   81.198705   16.443522   12.103412
 N   80.811538   15.282305   11.513349
 C   80.333414   17.546636   11.991370
 C   79.084828   17.433760   11.166243
 C   80.628229   18.719181   12.677810
 N   79.839016   19.843237   12.542788
 C   81.758566   18.768508   13.511341
 C   82.629148   17.715422   13.583891
 C   82.785666   14.191492   12.362278
 C   81.507802   14.197794   11.699470
 N   80.958329   13.036464   11.235570
 C   83.548279   13.022524   12.579269
 N   84.714767   13.003977   13.148458
 C   85.308304   14.189011   13.425841
 C   86.627591   14.147370   13.915479
 H   88.729066   13.618627   15.694760
 H   89.376020   13.514884   14.034061
 H   90.250189   14.448293   15.275225
 H   86.797023   18.956503   12.511764
 H   86.223717   19.167817   14.189767
 H   87.899345   19.591248   13.758555
 H   85.034891   17.538915   13.010411
 H   79.044368   16.441658   10.729045
 H   78.193945   17.582088   11.779121
 H   79.084222   18.176756   10.368909
 H   78.894035   19.691511   12.231301
 H   79.934962   20.537779   13.266091
 H   81.925926   19.653627   14.109672
 H   83.446919   17.756762   14.285921
 H   80.150686   13.160545   10.647229
 H   81.562241   12.265092   11.012839
 H   83.152140   12.049778   12.313381
 H   87.046900   13.170997   14.091767
