47 
2r9x_ligand_aiqm1.xyz
 C    1.928481   -0.612517   -0.332717
 C    1.655709   -0.928857    1.028889
 C    1.383563   -2.215751    1.420189
 C    1.370500   -3.267396    0.475491
 C    1.679886   -3.006037   -0.833553
 C    1.983223   -1.687076   -1.265700
 C    2.332248   -1.430131   -2.616278
 C    2.612178   -0.154216   -3.025161
 C    2.495017    0.923058   -2.115204
 C    2.136847    0.722823   -0.802004
 C    1.848362    1.935246    0.050148
 C    0.437261    2.477856   -0.246741
 C    0.077308    3.699345    0.597087
 C    0.876681    4.917013    0.218399
 O    1.600604    5.023571   -0.739541
 O    0.675445    5.922650    1.092455
 N   -0.568262    1.431850   -0.069867
 C   -0.922630    0.869901    1.152522
 O   -0.556166    1.264926    2.236815
 C   -1.802700   -0.288633    0.827315
 C   -2.420351   -1.202696    1.656621
 C   -3.131772   -2.240028    1.036507
 C   -3.825097   -3.286175    1.840368
 O   -3.682639   -3.088577    3.167103
 O   -4.445799   -4.209599    1.378879
 C   -3.212794   -2.342751   -0.358014
 C   -2.590174   -1.404988   -1.181538
 C   -1.893103   -0.385288   -0.558189
 C   -1.101667    0.734820   -1.157120
 O   -0.949848    1.019312   -2.320587
 H    1.674106   -0.150329    1.777055
 H    1.183997   -2.425635    2.462760
 H    1.135500   -4.274893    0.792711
 H    1.704096   -3.809215   -1.561464
 H    2.375294   -2.258316   -3.315137
 H    2.886638    0.047177   -4.052630
 H    2.658239    1.933546   -2.473703
 H    2.560460    2.724182   -0.192041
 H    1.934654    1.735129    1.116896
 H    0.380465    2.753030   -1.300839
 H    0.223275    3.497433    1.657424
 H   -0.979335    3.953479    0.463619
 H    1.197587    6.669543    0.772588
 H   -2.359901   -1.139767    2.733414
 H   -4.160725   -3.805645    3.600303
 H   -3.768161   -3.170990   -0.778141
 H   -2.636601   -1.470681   -2.259889
