19 
2ra6_ligand_dft.xyz
 C   -3.157130   -0.020505    0.802693
 C   -2.408443    0.035809   -0.534607
 C   -0.908529    0.018912   -0.354078
 C   -0.208540   -1.187117   -0.251320
 C    1.162470   -1.217951   -0.037718
 C   -0.182060    1.202542   -0.233374
 C    1.193290    1.192441   -0.018954
 C    1.870015   -0.021833    0.079930
 O    3.214069   -0.103640    0.285972
 H   -2.898539   -0.930967    1.353856
 H   -2.890286    0.835138    1.432144
 H   -4.241582   -0.009048    0.649569
 H   -2.703965    0.941223   -1.078105
 H   -2.714009   -0.813856   -1.157031
 H   -0.750040   -2.126040   -0.343561
 H    1.701398   -2.156745    0.036460
 H   -0.697441    2.157300   -0.310154
 H    1.737734    2.130832    0.067013
 H    3.577728    0.787495    0.346603
