19 
2ra6_ligand_aiqm1.xyz
 C   27.348038   37.417523   43.521779
 C   26.799026   38.509733   42.599353
 C   25.299411   38.442180   42.466040
 C   24.466066   38.897875   43.493330
 C   23.083153   38.810560   43.405283
 C   24.692074   37.892068   41.338291
 C   23.306931   37.796025   41.231885
 C   22.502223   38.254336   42.268994
 O   21.135694   38.186759   42.227263
 H   26.908727   37.498396   44.517884
 H   27.109257   36.425410   43.134568
 H   28.432554   37.494140   43.621801
 H   27.255057   38.419871   41.610710
 H   27.084186   39.489635   42.991227
 H   24.909520   39.330056   44.383543
 H   22.445907   39.164900   44.204407
 H   25.307635   37.529028   40.523844
 H   22.858883   37.363429   40.343733
 H   20.872958   37.785778   41.396168
