19 
2ra6_ligand_xtb.xyz
 C   27.319145   37.351489   43.417907
 C   26.786251   38.565754   42.654596
 C   25.293241   38.483644   42.507213
 C   24.452562   38.998659   43.487018
 C   23.080683   38.891136   43.381083
 C   24.720617   37.849995   41.413775
 C   23.347507   37.735354   41.294645
 C   22.517995   38.255680   42.279284
 O   21.159802   38.168287   42.205232
 H   26.872349   37.302390   44.408319
 H   27.073720   36.434225   42.887296
 H   28.399742   37.412332   43.526061
 H   27.254201   38.604303   41.668751
 H   27.054572   39.475728   43.195094
 H   24.879585   39.495461   44.346323
 H   22.426529   39.292629   44.138657
 H   25.354698   37.441481   40.639764
 H   22.916045   37.240797   40.433502
 H   20.908057   37.708355   41.395580
