26 
2rfh_ligand_xtb.xyz
 C    1.917078    1.135109    0.161072
 C    3.188189    0.699197    0.488356
 C    3.589662   -0.583525    0.154219
 C    2.715690   -1.424750   -0.511983
 C    1.443670   -0.986628   -0.838431
 C    1.030986    0.297527   -0.505898
 C   -0.360307    0.767695   -0.824219
 C   -1.267382    0.697013    0.415259
 C   -2.630236    1.309377    0.106859
 O   -2.852882    2.065041   -0.793648
 O   -3.546338    0.972444    1.025353
 C   -1.407556   -0.722564    0.955042
 N   -2.110534   -1.602999   -0.001413
 O   -2.858753   -1.090258   -0.796320
 O   -1.896317   -2.785166    0.096294
 H    1.609330    2.139220    0.416727
 H    3.868267    1.361941    1.002904
 H    4.582130   -0.924169    0.408580
 H    3.023009   -2.424842   -0.779007
 H    0.769987   -1.648404   -1.364644
 H   -0.342797    1.803422   -1.166519
 H   -0.796599    0.167540   -1.623831
 H   -0.828087    1.308018    1.212883
 H   -4.402807    1.365646    0.797748
 H   -2.004055   -0.724541    1.872146
 H   -0.433547   -1.171345    1.162571
