50 
2rg5_ligand_ani-2x.xyz
 C   -3.628952    0.463812   14.270027
 C   -4.697106    0.076057   15.066925
 C   -2.186463   -0.955032   15.567155
 C   -1.923146   -3.373801   21.794349
 C   -2.363634   -0.067913   14.510837
 C   -1.665406   -4.482812   21.004035
 C   -4.544493   -0.826107   16.123574
 C   -2.045929   -4.170936   19.670453
 C   -3.255202   -1.327298   16.374314
 C   -2.502123   -2.846415   19.696084
 C   -3.304083   -0.431323   20.478526
 C   -2.999868   -1.891357   18.761997
 C   -1.154005    0.282917   13.701757
 C   -1.131076   -5.793976   21.458111
 C   -5.736488   -1.245031   16.939225
 C   -1.990012   -5.088883   18.486215
 C    1.468356   -7.369156   22.488942
 C    0.308494    0.063667   11.098562
 C    0.159357   -6.977562   23.171709
 N   -2.834264   -1.192090   21.435992
 N   -3.427470   -0.708462   19.145310
 N   -2.437237   -2.398785   21.013786
 N   -3.029025   -2.245803   17.441743
 N   -0.443975   -5.771043   22.634212
 N   -1.441952    0.791882   12.460434
 O   -0.015684    0.136568   14.112852
 O   -1.289118   -6.840604   20.836308
 O   -0.434384    1.172094   11.611087
 H   -3.781381    1.197012   13.482282
 H   -5.689357    0.473586   14.859697
 H   -1.181080   -1.327569   15.754027
 H   -1.842926   -3.199651   22.859562
 H   -3.631750    0.546707   20.812773
 H   -6.663032   -1.077378   16.381976
 H   -5.671052   -2.302457   17.211692
 H   -5.791391   -0.675961   17.871373
 H   -1.150824   -4.848904   17.819306
 H   -1.862455   -6.120213   18.820321
 H   -2.917940   -5.017361   17.904243
 H    1.295660   -7.539173   21.422179
 H    2.227489   -6.586897   22.598817
 H    1.862499   -8.293546   22.924731
 H    0.797710   -0.476941   11.913818
 H   -0.330847   -0.614717   10.517660
 H    1.058174    0.512767   10.444186
 H    0.309673   -6.821251   24.244416
 H   -0.571014   -7.782168   23.051657
 H   -2.393732   -2.994478   17.205695
 H   -0.196228   -4.880961   23.035005
 H   -2.303607    0.557046   11.985164
