50 
2rg5_ligand_xtb.xyz
 C   -3.558828    0.326760   14.191394
 C   -4.528738    0.101258   15.148727
 C   -2.108959   -1.179262   15.357153
 C   -2.074972   -3.634280   21.750300
 C   -2.332538   -0.324437   14.287294
 C   -1.720202   -4.698787   20.922728
 C   -4.318415   -0.746109   16.231162
 C   -1.938789   -4.301346   19.587653
 C   -3.070852   -1.369899   16.341094
 C   -2.414942   -2.993168   19.639942
 C   -3.280188   -0.613165   20.457659
 C   -2.826873   -1.997630   18.710213
 C   -1.236002   -0.191904   13.284474
 C   -1.224364   -6.020314   21.360101
 C   -5.417384   -1.004938   17.206657
 C   -1.692248   -5.126284   18.370605
 C    1.398108   -7.057429   23.402280
 C   -0.247390    0.660409   10.531344
 C   -0.105401   -7.208869   23.196942
 N   -2.927307   -1.429179   21.400544
 N   -3.254967   -0.819147   19.134738
 N   -2.492848   -2.625389   20.980584
 N   -2.767162   -2.260731   17.385456
 N   -0.685819   -6.026717   22.604674
 N   -1.244689    0.997776   12.625070
 O   -0.446595   -1.081233   13.048502
 O   -1.298218   -7.028106   20.679082
 O   -0.213056    1.373492   11.755238
 H   -3.779689    0.969817   13.352837
 H   -5.490286    0.583368   15.048611
 H   -1.159968   -1.692800   15.415235
 H   -2.095960   -3.543179   22.817794
 H   -3.631204    0.356661   20.779578
 H   -5.220546   -0.463886   18.131766
 H   -6.373499   -0.683296   16.802590
 H   -5.470201   -2.064608   17.451450
 H   -1.442267   -6.137668   18.678691
 H   -2.581173   -5.168959   17.741115
 H   -0.860441   -4.728646   17.785702
 H    1.890431   -6.872395   22.450776
 H    1.612447   -6.227278   24.073046
 H    1.806972   -7.966127   23.835084
 H   -0.087117   -0.406821   10.696683
 H   -1.195507    0.819757   10.008306
 H    0.573055    1.073662    9.949646
 H   -0.596804   -7.411455   24.155369
 H   -0.316131   -8.031147   22.509701
 H   -2.195600   -3.052982   17.127282
 H   -0.572857   -5.158251   23.100416
 H   -1.756313    1.794960   12.971811
