60 
2rg6_ligand_xtb.xyz
 C    8.095931   -0.436277   -2.427790
 C    7.435135   -1.483943   -1.809543
 C    8.053672    0.827669   -1.865461
 C   -5.977377    1.827119   -1.031887
 C    6.739093   -1.268347   -0.633800
 C    7.353746    1.042132   -0.690894
 C   -4.984374    2.766755   -1.233609
 C   -4.334124    0.290671   -0.193446
 C    1.859968   -1.216836    1.177160
 C   -5.653387    0.575854   -0.520414
 C    2.189980    0.121352    0.970325
 C    6.691827   -0.002901   -0.061182
 C   -3.658113    2.497042   -0.931673
 C    1.013890    0.803834    0.596020
 C   -3.336345    1.236503   -0.400188
 C   -0.005203   -0.146800    0.575179
 C   -1.403638   -2.403406    0.766067
 C   -1.403410   -0.172489    0.295586
 C   -6.766027   -0.399766   -0.320567
 C    3.527215    0.729491    1.132013
 C   -2.604972    3.540284   -1.168253
 C    0.911781    2.257686    0.279296
 C    6.589614   -0.505054    2.395033
 C   -7.820884   -2.940063    0.972509
 C    5.936235    0.236577    1.226683
 N   -0.143114   -2.507746    1.044518
 N   -2.079301   -1.307754    0.397231
 N    0.553398   -1.367584    0.944787
 N   -2.004436    0.977494   -0.081062
 N    4.548085   -0.159091    1.092641
 N   -6.364735   -1.694345   -0.376779
 O   -7.911020   -0.063164   -0.105289
 O    3.709293    1.923652    1.297042
 O   -7.257380   -2.767242   -0.316817
 H    8.640600   -0.605181   -3.344874
 H    7.463084   -2.472831   -2.243678
 H    8.565216    1.649897   -2.343812
 H   -7.007506    2.045784   -1.265028
 H    6.232108   -2.097926   -0.160660
 H    7.317519    2.031023   -0.257650
 H   -5.243375    3.735065   -1.636010
 H   -4.049859   -0.649388    0.247270
 H    2.446695   -2.051319    1.505185
 H   -1.981314   -3.313322    0.839829
 H   -1.834124    3.174788   -1.847485
 H   -2.131547    3.843038   -0.233264
 H   -3.051643    4.424581   -1.614554
 H    0.626943    2.418265   -0.762119
 H    0.191208    2.751515    0.932687
 H    1.882148    2.717549    0.445482
 H    6.593825   -1.578087    2.216002
 H    7.617168   -0.171805    2.513556
 H    6.045869   -0.304530    3.314994
 H   -8.459133   -3.815459    0.879768
 H   -7.043549   -3.120272    1.721840
 H   -8.418448   -2.071404    1.256289
 H    5.913133    1.310133    1.441623
 H   -1.383191    1.769186   -0.159329
 H    4.359630   -1.126254    0.890577
 H   -5.435811   -1.965446   -0.661697
