28 
2ria_ligand_xtb.xyz
 O    3.281657    0.071637   -0.160319
 C    2.726693   -1.157258   -0.562221
 C    1.416501   -1.455413    0.181485
 O    1.646538   -1.161505    1.540472
 C    0.170411   -0.696668   -0.322534
 O   -0.869115   -1.242538    0.489088
 C   -2.154008   -0.725877    0.283233
 O   -2.650285   -1.048631   -0.978640
 C   -2.209997    0.796808    0.431918
 O   -1.994020    1.124475    1.778015
 C   -1.147119    1.429185   -0.466305
 O   -1.141133    2.815304   -0.220277
 C    0.235261    0.832763   -0.164058
 O    1.120796    1.450046   -1.061609
 H    3.246282    0.076753    0.808077
 H    2.558760   -1.104848   -1.638962
 H    3.434971   -1.967301   -0.347804
 H    1.187193   -2.526661    0.063840
 H    0.792529   -1.212965    1.988465
 H   -0.007527   -0.932385   -1.381935
 H   -2.751371   -1.182508    1.087234
 H   -2.640779   -2.008098   -1.082954
 H   -3.203819    1.134276    0.103182
 H   -1.820539    2.076519    1.795874
 H   -1.393605    1.222649   -1.517681
 H   -0.361313    3.168296   -0.667775
 H    0.498551    1.069772    0.879653
 H    2.028387    1.153974   -0.857062
