28 
2ria_ligand_aiqm1.xyz
 O    3.246270    0.119968   -0.095006
 C    2.722394   -1.129073   -0.532882
 C    1.414175   -1.469886    0.163134
 O    1.652447   -1.236420    1.543325
 C    0.177123   -0.704736   -0.317810
 O   -0.857348   -1.224288    0.535140
 C   -2.149112   -0.708797    0.306924
 O   -2.617886   -1.046383   -0.977564
 C   -2.195462    0.804988    0.409043
 O   -1.954207    1.135145    1.764007
 C   -1.141953    1.410844   -0.490842
 O   -1.136819    2.811383   -0.246907
 C    0.225821    0.822245   -0.193393
 O    1.095690    1.436465   -1.127310
 H    3.190073    0.097684    0.866518
 H    2.583566   -1.058951   -1.610619
 H    3.437928   -1.927355   -0.317737
 H    1.207322   -2.533626   -0.006611
 H    0.820785   -1.387497    1.999872
 H   -0.026742   -0.972471   -1.364375
 H   -2.767891   -1.151939    1.086386
 H   -2.722843   -1.999248   -1.013298
 H   -3.184755    1.153043    0.095438
 H   -1.773388    2.079250    1.769587
 H   -1.396952    1.204260   -1.534282
 H   -0.355702    3.155955   -0.686408
 H    0.504905    1.076487    0.835027
 H    2.002462    1.242752   -0.858955
