28 
2ria_ligand_ani-2x.xyz
 O    3.242161    0.112877   -0.080161
 C    2.699894   -1.106669   -0.567034
 C    1.417039   -1.473799    0.172983
 O    1.670895   -1.199873    1.543148
 C    0.162278   -0.725318   -0.299869
 O   -0.876392   -1.228240    0.559908
 C   -2.165129   -0.712731    0.317143
 O   -2.618072   -1.033982   -0.973682
 C   -2.198889    0.804346    0.421299
 O   -1.928028    1.156848    1.758371
 C   -1.145908    1.398066   -0.496006
 O   -1.111092    2.792527   -0.254472
 C    0.217509    0.797756   -0.180902
 O    1.107650    1.393466   -1.105283
 H    3.106988    0.078413    0.882274
 H    2.504687   -0.967346   -1.634271
 H    3.437416   -1.913242   -0.459014
 H    1.212726   -2.545568    0.031998
 H    0.821635   -1.289584    2.000657
 H   -0.051620   -0.992292   -1.345651
 H   -2.818629   -1.150665    1.082349
 H   -2.553299   -1.993556   -1.074436
 H   -3.195820    1.147866    0.106249
 H   -1.745269    2.108077    1.732735
 H   -1.400846    1.184578   -1.544865
 H   -0.280116    3.103545   -0.645726
 H    0.473612    1.059405    0.856220
 H    2.014517    1.194896   -0.803562
