28 
2rib_ligand_ani-2x.xyz
 C   -1.890688    0.995107    0.659039
 C   -2.170803    0.661880   -0.800252
 C   -1.540056   -0.673631   -1.161398
 C   -0.060512   -0.641117   -0.801034
 C    0.085780   -0.329783    0.692586
 C    1.525290   -0.245601    1.192167
 C    2.369981    0.814370    0.489928
 O   -2.635478    0.082200    1.423808
 O   -1.613298    1.683177   -1.596831
 O   -1.690683   -0.846563   -2.557746
 O    0.470128   -1.895271   -1.161078
 O   -0.517605    0.933343    0.970655
 O    2.139541   -1.512345    0.978312
 O    3.687274    0.642280    1.002041
 H   -2.196870    2.027536    0.867518
 H   -3.261514    0.599679   -0.930811
 H   -2.031819   -1.487724   -0.607256
 H    0.396695    0.172611   -1.390869
 H   -0.423908   -1.127058    1.259542
 H    1.498212   -0.023383    2.267002
 H    2.354556    0.631067   -0.594997
 H    1.981356    1.819454    0.693073
 H   -2.422390    0.239900    2.353814
 H   -1.623920    1.327217   -2.497992
 H   -1.077614   -1.554009   -2.808795
 H    1.247968   -2.050532   -0.596107
 H    3.093336   -1.348517    1.053514
 H    4.306641    1.105515    0.427565
