28 
2rib_ligand_xtb.xyz
 C   -1.838131    1.000902    0.674187
 C   -2.169192    0.672388   -0.787345
 C   -1.544341   -0.670422   -1.178730
 C   -0.046831   -0.655451   -0.839551
 C    0.102097   -0.365295    0.658394
 C    1.558410   -0.313643    1.142126
 C    2.389672    0.756426    0.430558
 O   -2.615596    0.165994    1.477339
 O   -1.686462    1.704637   -1.603057
 O   -1.736741   -0.850573   -2.562072
 O    0.499171   -1.894558   -1.222112
 O   -0.472873    0.890241    0.978050
 O    2.140579   -1.588760    0.969132
 O    3.654684    0.768756    1.066284
 H   -2.062461    2.063502    0.851774
 H   -3.263803    0.594189   -0.869903
 H   -2.031380   -1.477698   -0.612710
 H    0.420078    0.161831   -1.413106
 H   -0.407841   -1.170626    1.211413
 H    1.543918   -0.054240    2.211622
 H    2.507861    0.501268   -0.630336
 H    1.876096    1.718129    0.522325
 H   -2.423763    0.360043    2.403298
 H   -1.700872    1.356627   -2.506646
 H   -1.162593   -1.580698   -2.825846
 H    1.215647   -2.107676   -0.603781
 H    3.081907   -1.487682    1.162912
 H    4.172358    1.502188    0.721184
