94 
2rkg_ligand_xtb.xyz
 C   -3.476673   -1.024323    1.972031
 C   -1.282840   -1.354260    3.037670
 N   -0.848620   -2.119938    1.883077
 C   -1.598100   -2.117735    0.748273
 N   -2.887625   -1.708204    0.847439
 C    2.547827    4.642402    0.875089
 C    3.418968    4.137817    1.831771
 C    4.754783    4.500237    1.829030
 C    5.235896    5.371875    0.867435
 C    4.374908    5.878960   -0.091625
 C    3.040531    5.515200   -0.087887
 O   -1.182008   -2.518056   -0.341627
 C    0.526648   -2.611218    1.904898
 C    1.473256   -1.595035    1.254223
 N    1.282721   -1.403865   -0.048534
 C    2.071000   -0.498672   -0.857229
 C    0.690689   -4.028488    1.328207
 C    2.139294   -4.472787    1.510025
 C   -0.260253   -4.993935    2.031750
 O    2.299566   -0.979526    1.919784
 C    4.765707   -3.983915   -1.504970
 C    3.953629   -5.098962   -1.625180
 C    2.615840   -4.941726   -1.942681
 C    2.092686   -3.675841   -2.139834
 C    2.901234   -2.552225   -2.028552
 C    4.241990   -2.719619   -1.705747
 C    2.330244   -1.174539   -2.214229
 C    1.353284    0.846001   -1.057618
 C    1.541694    1.843532    0.098249
 C    0.847898    3.176533   -0.240968
 N   -0.567877    2.933629   -0.382189
 C   -1.303128    3.388374   -1.403861
 C   -2.753749    2.900326   -1.384530
 O   -2.870885    1.726286   -0.598197
 C   -3.924256    0.894997   -0.965095
 O    0.986178    1.386702    1.310351
 C    1.104852    4.232065    0.850756
 O   -0.894108    4.129044   -2.274832
 C   -5.171239    1.059080   -0.358594
 C   -6.197131    0.187305   -0.696732
 C   -5.992165   -0.821755   -1.619573
 C   -4.752789   -0.973615   -2.212571
 C   -3.700017   -0.121110   -1.898587
 C   -2.354192   -0.328202   -2.523638
 C   -5.401144    2.155826    0.637812
 C   -2.784880   -1.506617    3.236831
 H   -3.357933    0.062200    1.865555
 H   -4.546578   -1.249263    1.992016
 H   -1.022295   -0.295172    2.906219
 H   -0.750932   -1.724589    3.916589
 H   -3.372485   -1.645106   -0.035758
 H    3.046735    3.456194    2.583078
 H    5.421540    4.101184    2.579657
 H    6.277859    5.656672    0.865820
 H    4.744915    6.560926   -0.843436
 H    2.369538    5.912815   -0.835828
 H    0.818585   -2.653733    2.960420
 H    0.496983   -1.883008   -0.489091
 H    3.019921   -0.342081   -0.330184
 H    0.453731   -4.018684    0.263050
 H    2.398824   -4.507091    2.566362
 H    2.283486   -5.463046    1.086008
 H    2.821295   -3.788431    1.011520
 H   -0.069154   -5.009325    3.103412
 H   -1.294499   -4.703364    1.865146
 H   -0.122084   -5.999849    1.643504
 H    5.810227   -4.100098   -1.255318
 H    4.363478   -6.086340   -1.471338
 H    1.976182   -5.807209   -2.036399
 H    1.046724   -3.560505   -2.385989
 H    4.880269   -1.852178   -1.614571
 H    1.385296   -1.234967   -2.757800
 H    3.021997   -0.554792   -2.787214
 H    0.287391    0.650023   -1.187770
 H    1.728340    1.318044   -1.966733
 H    2.616848    2.041315    0.223780
 H    1.210043    3.555479   -1.202138
 H   -0.978947    2.296230    0.284255
 H   -3.384086    3.704538   -0.976581
 H   -3.068043    2.722746   -2.419200
 H    1.556481    0.679326    1.658956
 H    0.810878    3.808553    1.811734
 H    0.474992    5.096902    0.632910
 H   -7.164451    0.307725   -0.231372
 H   -6.799421   -1.490952   -1.876732
 H   -4.589009   -1.763464   -2.930808
 H   -1.749838    0.573573   -2.474114
 H   -1.827406   -1.125934   -1.995897
 H   -2.460757   -0.628341   -3.563891
 H   -6.092589    1.829827    1.411703
 H   -5.835717    3.025922    0.144358
 H   -4.464493    2.457601    1.100531
 H   -3.022069   -2.558170    3.406007
 H   -3.111836   -0.928238    4.099741
