11 
2sfp_ligand_xtb.xyz
 C   25.505783   17.718973   67.772494
 C   23.990804   17.722086   67.870358
 C   23.388601   16.669181   66.937644
 O   26.103921   16.633824   68.298857
 O   26.149660   18.587947   67.263979
 H   23.635883   18.712743   67.586963
 H   23.693808   17.526163   68.904397
 H   23.671360   16.876872   65.908553
 H   23.728861   15.665777   67.189833
 H   22.303825   16.687676   67.007167
 H   25.468495   16.010760   68.674956
