70 
2srt_ligand_aiqm1.xyz
 C    5.154794   -0.358146   -0.161627
 C    3.886118   -0.112496   -0.978199
 C    4.072596    1.151337   -1.796728
 O    4.832580    0.938593   -2.868865
 O    3.622587    2.244212   -1.519215
 N    2.747922    0.038962   -0.092387
 C    1.441204   -0.004446   -0.736670
 C    1.018528   -1.348261   -1.364577
 C    0.685850   -2.469615   -0.367338
 C    1.869067   -2.913684    0.456478
 C    1.977607   -2.587617    1.809641
 C    3.106448   -2.953796    2.543894
 C    4.139523   -3.662892    1.936522
 C    4.034917   -4.009880    0.591980
 C    2.910231   -3.632772   -0.141000
 C    0.379913    0.446638    0.269951
 O    0.527723    0.356648    1.479667
 N   -0.713768    1.022722   -0.293449
 C   -1.980171    1.094699    0.420772
 C   -2.533878    2.530561    0.499836
 C   -2.058160    3.338358    1.711403
 C   -0.550168    3.402778    1.915171
 N    0.103529    4.005167    0.742315
 C    1.323913    3.725133    0.290538
 N    2.107337    2.855107    0.909973
 N    1.790469    4.370819   -0.782235
 C   -2.963342    0.177178   -0.333906
 O   -2.720306   -0.165735   -1.479116
 N   -4.058169   -0.157421    0.375685
 C   -5.139523   -1.008306    0.008435
 C   -5.334588   -1.474774   -1.293229
 C   -6.431642   -2.293853   -1.556855
 C   -7.328829   -2.647868   -0.554536
 C   -7.124987   -2.174874    0.738727
 C   -6.036147   -1.358374    1.019934
 H    5.325049    0.461712    0.535827
 H    6.021997   -0.471211   -0.809384
 H    5.020456   -1.277397    0.407077
 H    3.769225   -0.936978   -1.689816
 H    4.979691    1.785603   -3.310312
 H    2.783857   -0.666235    0.632180
 H    2.931287    2.532044    0.422192
 H    1.444160    0.736596   -1.541853
 H    0.142679   -1.167294   -1.991930
 H    1.807138   -1.680825   -2.040245
 H    0.305999   -3.316430   -0.936709
 H   -0.124584   -2.139703    0.289382
 H    1.182965   -2.023928    2.286619
 H    3.174790   -2.685419    3.589588
 H    5.011219   -3.950289    2.506340
 H    4.822852   -4.572903    0.111585
 H    2.833688   -3.913010   -1.186169
 H   -0.862267    0.807318   -1.273276
 H   -1.826248    0.701760    1.425411
 H   -2.285169    3.042145   -0.433292
 H   -3.623188    2.490021    0.545638
 H   -2.476586    2.898706    2.617403
 H   -2.458936    4.351899    1.643800
 H   -0.314679    3.993987    2.801771
 H   -0.165605    2.399252    2.073139
 H   -0.411305    4.728293    0.268275
 H    1.740674    2.222387    1.604728
 H    2.639473    4.048116   -1.219929
 H    1.225866    5.042894   -1.268110
 H   -4.078809    0.172780    1.325937
 H   -4.645291   -1.211051   -2.081503
 H   -6.583203   -2.657770   -2.563807
 H   -8.173447   -3.282533   -0.777354
 H   -7.807740   -2.436934    1.533715
 H   -5.884762   -0.994465    2.031194
