70 
2srt_ligand_ani-2x.xyz
 C    5.062917   -0.392599    0.227822
 C    3.959038   -0.052851   -0.774694
 C    4.402535    1.161424   -1.568542
 O    5.186699    0.824163   -2.601486
 O    4.159107    2.313877   -1.284842
 N    2.732280    0.224948   -0.064582
 C    1.472797    0.224268   -0.782446
 C    1.110165   -1.069263   -1.563242
 C    0.683301   -2.275995   -0.708901
 C    1.778626   -2.845812    0.163348
 C    1.780933   -2.642947    1.545635
 C    2.805543   -3.156526    2.338727
 C    3.838602   -3.889120    1.760118
 C    3.852533   -4.088192    0.382440
 C    2.836124   -3.559728   -0.407384
 C    0.362126    0.555622    0.225630
 O    0.524996    0.423059    1.436571
 N   -0.801614    1.000825   -0.309218
 C   -2.041994    1.145635    0.434605
 C   -2.564083    2.599866    0.466248
 C   -2.042156    3.449899    1.631778
 C   -0.525667    3.487820    1.788916
 N    0.099026    3.910459    0.538404
 C    1.375610    3.665248    0.197348
 N    2.207889    3.006192    1.019418
 N    1.831374    4.189880   -0.961194
 C   -3.085004    0.267443   -0.273926
 O   -3.052882    0.137938   -1.485459
 N   -4.031409   -0.281479    0.546437
 C   -5.100859   -1.138318    0.203690
 C   -5.301004   -1.614517   -1.093551
 C   -6.378534   -2.457518   -1.346755
 C   -7.257368   -2.832693   -0.335736
 C   -7.051929   -2.354017    0.954997
 C   -5.980302   -1.513311    1.224934
 H    5.194518    0.430412    0.938356
 H    6.010341   -0.575166   -0.288080
 H    4.792278   -1.291458    0.789402
 H    3.867146   -0.887120   -1.484020
 H    5.477646    1.652948   -3.017384
 H    2.671756   -0.330623    0.782607
 H    3.045009    2.646833    0.567289
 H    1.505198    1.042240   -1.517313
 H    0.292294   -0.820517   -2.250510
 H    1.953373   -1.348556   -2.206452
 H    0.316132   -3.054860   -1.388268
 H   -0.167392   -1.989220   -0.078649
 H    0.994149   -2.042738    1.996216
 H    2.794412   -2.992712    3.413450
 H    4.633125   -4.298235    2.379571
 H    4.660040   -4.652457   -0.078671
 H    2.858253   -3.717433   -1.484516
 H   -0.940785    0.902663   -1.307672
 H   -1.860605    0.799139    1.458720
 H   -2.318166    3.069243   -0.492667
 H   -3.660177    2.587147    0.526869
 H   -2.470498    3.083120    2.574547
 H   -2.420374    4.473447    1.509602
 H   -0.254059    4.159718    2.614782
 H   -0.170196    2.488547    2.050740
 H   -0.361705    4.665182    0.045699
 H    1.781592    2.299566    1.610675
 H    2.714311    3.823355   -1.299077
 H    1.149430    4.354344   -1.690208
 H   -3.935090   -0.088473    1.531366
 H   -4.621404   -1.323462   -1.884308
 H   -6.529689   -2.824612   -2.359513
 H   -8.093570   -3.491354   -0.552977
 H   -7.727903   -2.636091    1.758383
 H   -5.826385   -1.141259    2.236005
