30 
2toh_ligand_aiqm1.xyz
 N    3.153472   -0.008078   -0.752324
 N    5.082646   -0.273570    0.462767
 C    3.720291   -0.203433    0.405306
 N    3.043412   -0.385683    1.561467
 C    1.617904   -0.427907    1.655971
 O    1.098399   -0.617661    2.738769
 C    1.006810   -0.224189    0.384643
 C    1.787232   -0.036675   -0.747713
 N    1.188347    0.151429   -1.937312
 C   -0.254589    0.083632   -2.120918
 C   -0.974886   -0.102325   -0.800110
 N   -0.387658   -0.266172    0.324892
 C   -2.487763   -0.192685   -0.910713
 O   -2.828991   -1.406462   -1.573113
 C   -3.214693   -0.123658    0.429778
 O   -2.832152   -1.226010    1.232396
 C   -3.054772    1.204091    1.152398
 H    5.545576    0.037584   -0.374191
 H    5.536521   -0.031896    1.325154
 H    3.532630   -0.586404    2.420801
 H    1.793642    0.229004   -2.735300
 H   -0.607490    1.001553   -2.603689
 H   -0.524063   -0.744003   -2.783683
 H   -2.829952    0.616473   -1.564418
 H   -2.880927   -2.071750   -0.877174
 H   -4.270337   -0.282337    0.198521
 H   -1.905053   -1.087378    1.476567
 H   -2.017519    1.347943    1.455496
 H   -3.356373    2.035648    0.511260
 H   -3.679265    1.206621    2.044672
