39 
2tpi_ligand_aiqm1.xyz
 N   -1.784959   -2.121285    1.204947
 C   -1.168477   -1.459743    0.005121
 C    0.070978   -0.748082    0.589859
 O    0.299140   -0.913534    1.787465
 C   -2.147784   -0.509493   -0.713683
 C   -2.612513    0.652034    0.176535
 C   -3.320304   -1.285518   -1.312167
 C   -3.099103    1.834889   -0.654795
 N    0.786624   -0.033714   -0.254020
 C    1.866316    0.857150    0.183956
 C    1.602933    2.185461   -0.492957
 O    2.486592    3.114063   -0.136857
 C    3.273070    0.301729   -0.111146
 C    3.541392    0.155765   -1.604443
 C    3.483656   -1.020916    0.618482
 O    0.689547    2.360852   -1.262219
 H   -1.063764   -1.912032    1.946845
 H   -1.945375   -3.117479    1.089127
 H   -2.669699   -1.681769    1.458320
 H   -0.829982   -2.228854   -0.684880
 H   -1.578917   -0.086702   -1.539974
 H   -1.794457    0.984035    0.821748
 H   -3.417103    0.315121    0.838839
 H   -3.949854   -0.612561   -1.882836
 H   -3.957957   -1.742343   -0.549096
 H   -2.986289   -2.069320   -1.991304
 H   -2.289805    2.238859   -1.263284
 H   -3.460793    2.627602   -0.005766
 H   -3.915988    1.552956   -1.318447
 H    0.427026    0.162937   -1.176615
 H    1.764269    0.992146    1.261054
 H    2.258166    3.928924   -0.605654
 H    3.958600    1.042922    0.297528
 H    2.876410   -0.584957   -2.057884
 H    4.560991   -0.190555   -1.755138
 H    3.427651    1.097300   -2.142388
 H    3.273367   -0.933769    1.683498
 H    4.512766   -1.350104    0.499989
 H    2.833928   -1.802018    0.208442
