34 
2uxi_ligand_dft.xyz
 C   -3.162105   -1.811401    0.003267
 C   -4.425723   -1.225189    0.103716
 C   -4.578967    0.154930    0.111218
 C   -3.451858    0.971156    0.047395
 C   -2.131256    0.417560    0.012498
 C   -2.043053   -1.004271   -0.056538
 C   -1.000288    1.335089    0.157971
 C    0.408216    0.866652    0.484891
 C    1.291370    0.803813   -0.783198
 O   -0.870162   -1.673011   -0.200641
 O   -1.151211    2.560688    0.050400
 C    2.690367    0.334720   -0.468948
 C    3.700976    1.248123   -0.157480
 C    4.978763    0.825692    0.179894
 C    5.270096   -0.538296    0.213560
 C    4.274810   -1.465750   -0.092593
 C    2.999498   -1.024044   -0.428664
 O    6.537272   -0.899945    0.547479
 O   -5.480699   -2.064902    0.159688
 O   -3.665027    2.283813    0.050442
 H   -3.057835   -2.886729   -0.065769
 H   -5.555284    0.626900    0.158482
 H    0.421161   -0.083906    1.025193
 H    0.830988    1.624669    1.149694
 H    1.306687    1.803514   -1.229324
 H    0.846508    0.150384   -1.549803
 H   -0.188543   -1.086255   -0.542874
 H    3.483987    2.313394   -0.181907
 H    5.763309    1.536459    0.416720
 H    4.493177   -2.531255   -0.072302
 H    2.235361   -1.762106   -0.665351
 H    6.607816   -1.861836    0.535227
 H   -6.295930   -1.550162    0.207867
 H   -2.777858    2.721083   -0.006729
