32 
2uxu_ligand_aiqm1.xyz
 C   -2.513599    1.239777    1.014376
 C   -3.890904    1.076341    0.856810
 C   -4.434023    0.155815   -0.031618
 C   -3.572494   -0.616718   -0.807993
 C   -2.169703   -0.470058   -0.691175
 C   -1.667830    0.463805    0.243010
 C   -1.274939   -1.218241   -1.548294
 C    0.192392   -0.921121   -1.373071
 C    0.481001   -0.493153    0.059006
 O   -0.335529    0.652780    0.394605
 O   -1.675293   -2.023435   -2.390924
 C    1.913985   -0.113538    0.292171
 C    2.445656    1.070596   -0.218948
 C    3.785196    1.389138   -0.024836
 C    4.610204    0.523242    0.687634
 C    4.094164   -0.658500    1.214217
 C    2.752188   -0.962478    1.019020
 O    5.932353    0.781263    0.903388
 O   -4.678698    1.863982    1.633226
 O   -4.105338   -1.489448   -1.666311
 H   -2.117310    1.956722    1.716662
 H   -5.502749    0.026023   -0.146181
 H    0.453152   -0.103273   -2.051707
 H    0.778247   -1.791790   -1.664447
 H    0.206242   -1.312534    0.738228
 H    1.810052    1.761586   -0.757559
 H    4.183510    2.315912   -0.423271
 H    4.743262   -1.318495    1.772997
 H    2.355550   -1.880393    1.436921
 H    6.154600    1.624790    0.503947
 H   -5.600553    1.667628    1.453691
 H   -3.353390   -1.908424   -2.143476
