29 
2v00_ligand_aiqm1.xyz
 N   -0.248547    5.527405    8.950521
 C    0.697861    4.701845    9.464092
 C   -1.600926    5.488521    9.340236
 C   -1.857268    4.479073   10.333977
 C   -0.843871    3.689352   10.800237
 N    0.458681    3.789363   10.353069
 C   -2.714820    0.705831   10.285832
 C   -3.486803    0.157000    9.264790
 C   -4.807159    0.557943    9.084575
 C   -5.353986    1.511439    9.936720
 C   -4.581100    2.058504   10.958836
 N    1.987963    4.906857    9.036001
 C   -0.999797    2.638076   11.865621
 C   -3.251083    1.667291   11.149195
 C   -2.429521    2.277415   12.261250
 O   -2.393240    6.266838    8.840897
 H   -0.000678    6.256879    8.298984
 H   -2.876459    4.382203   10.670197
 H   -1.686236    0.386578   10.408093
 H   -3.052200   -0.583649    8.605036
 H   -5.400611    0.134493    8.285395
 H   -6.377378    1.837462    9.805738
 H   -5.013673    2.805876   11.615692
 H    2.606454    4.161531    9.312953
 H    2.105316    5.201336    8.081703
 H   -0.455722    2.998253   12.743899
 H   -0.450424    1.757196   11.526038
 H   -2.940219    3.166822   12.636562
 H   -2.381156    1.576966   13.101662
