27 
2v57_ligand_xtb.xyz
 C    5.715043   -3.810511    4.678537
 C    6.443096   -3.032259    3.836681
 C    7.858439   -2.961652    3.952416
 C    8.496704   -3.690240    4.928353
 C    8.489916   -6.687033    8.568924
 C    7.848081   -7.503797    9.469925
 C    6.432701   -7.628447    9.419584
 C    5.707924   -6.950464    8.492432
 C    5.648361   -5.384785    6.581806
 N    8.441465   -5.192298    6.745526
 C    7.773271   -4.508214    5.819139
 C    6.339590   -6.102055    7.551579
 C    6.343019   -4.572136    5.693280
 C    7.769881   -5.968834    7.593504
 N    8.553604   -2.166670    3.086104
 N    8.539992   -8.203159   10.417506
 H    4.638493   -3.861423    4.587080
 H    5.959075   -2.452172    3.062977
 H    9.569876   -3.652019    5.034711
 H    9.563229   -6.577254    8.588440
 H    5.945841   -8.275497   10.136286
 H    4.631301   -7.048180    8.457620
 H    4.569110   -5.459217    6.518654
 H    8.076468   -1.642589    2.378179
 H    9.551345   -2.104642    3.151984
 H    9.537467   -8.125854   10.469902
 H    8.059809   -8.791497   11.070772
