27 
2v57_ligand_ani-2x.xyz
 C    5.703012   -3.796693    4.659675
 C    6.440704   -3.017962    3.818466
 C    7.868743   -2.952092    3.941900
 C    8.492585   -3.688161    4.925418
 C    8.485769   -6.689635    8.571439
 C    7.858338   -7.512113    9.481511
 C    6.430193   -7.643217    9.437382
 C    5.695826   -6.966012    8.509838
 C    5.625486   -5.386463    6.580422
 N    8.429706   -5.192966    6.744963
 C    7.751233   -4.508858    5.817091
 C    6.316977   -6.106410    7.553798
 C    6.320498   -4.570836    5.688414
 C    7.747959   -5.970934    7.593032
 N    8.583651   -2.158093    3.078568
 N    8.569871   -8.208105   10.428185
 H    4.620523   -3.838689    4.556328
 H    5.955642   -2.433984    3.039653
 H    9.569126   -3.674358    5.062231
 H    9.562608   -6.554852    8.561062
 H    5.942283   -8.294351   10.159072
 H    4.613170   -7.073416    8.486166
 H    4.539400   -5.461405    6.516668
 H    8.121046   -1.625868    2.365050
 H    9.584070   -2.094919    3.147077
 H    9.570333   -8.130635   10.479165
 H    8.104348   -8.801873   11.089324
