37 
2v59_ligand_xtb.xyz
 N    1.914272  -27.586756   24.897714
 C    2.188467  -26.262776   24.874751
 N    3.231563  -25.866847   24.173817
 N    1.362552  -25.481833   25.610629
 C    1.643967  -24.205649   25.643806
 C    2.733244  -23.648309   24.959590
 C    3.526905  -24.560886   24.198819
 N    4.582985  -24.146344   23.487128
 C    4.899720  -22.871229   23.494130
 N    5.916530  -22.504489   22.673781
 C    3.101484  -22.289129   24.965833
 C    4.187700  -21.878056   24.246933
 C    4.607679  -20.462441   24.241793
 C    5.847431  -20.084565   24.771710
 O    6.622682  -21.109855   25.239608
 C    7.834930  -20.800780   25.880923
 C    3.744367  -19.481678   23.736794
 O    2.563201  -19.938505   23.237538
 C    1.662006  -19.013287   22.682416
 C    4.127184  -18.144539   23.758068
 C    5.354322  -17.792470   24.287729
 C    6.218301  -18.745265   24.794782
 H    2.404711  -28.176258   24.249994
 H    1.035029  -27.880136   25.282810
 H    0.979629  -23.581906   26.232823
 H    6.458086  -23.261823   22.292110
 H    6.376230  -21.626470   22.835087
 H    2.526213  -21.584577   25.550971
 H    8.543977  -20.320548   25.197784
 H    7.677335  -20.157083   26.751766
 H    8.243013  -21.755748   26.208217
 H    1.322010  -18.284248   23.425483
 H    2.099482  -18.485661   21.828638
 H    0.811700  -19.602578   22.342738
 H    3.479311  -17.375302   23.370976
 H    5.644209  -16.752691   24.306702
 H    7.166172  -18.437285   25.204811
