38 
2v77_ligand_aiqm1.xyz
 O    1.733529    2.427175   -0.040617
 O    0.823487    2.522385   -2.086400
 C    1.675199    2.102141   -1.332623
 C    2.735290    1.100241   -1.701475
 C    2.562781   -0.163317   -0.847629
 C    1.229129   -0.888323   -1.086871
 C    1.342752   -1.858979   -2.238792
 O    2.359545   -2.360360   -2.643248
 O    0.131738   -2.133781   -2.765862
 C    0.773940   -1.658148    0.170109
 C   -0.073511   -0.754797    1.079637
 C   -0.110820   -1.297217    2.488686
 O    0.101002   -2.436563    2.811691
 O   -0.473241   -0.346065    3.373426
 C   -1.533972   -0.667693    0.565827
 C   -2.233410    0.664028    0.885363
 C   -3.716250    0.614466    0.517892
 C   -1.519824    1.757990    0.130238
 O   -1.591498    1.595805   -1.189764
 O   -0.898389    2.657936    0.653374
 H    0.916441    2.901332    0.205049
 H    2.652522    0.878223   -2.765499
 H    3.717714    1.534410   -1.508085
 H    2.621311    0.122465    0.203449
 H    3.374203   -0.858629   -1.050971
 H    0.438038   -0.186259   -1.359395
 H    0.278029   -2.777807   -3.470849
 H    0.177521   -2.532778   -0.098116
 H    1.654031   -2.030735    0.697298
 H    0.363781    0.244018    1.122191
 H   -0.512613   -0.774001    4.238585
 H   -1.542086   -0.812078   -0.515379
 H   -2.111641   -1.491256    0.995796
 H   -2.115235    0.895197    1.944915
 H   -4.213419   -0.168337    1.089566
 H   -4.205289    1.562374    0.740847
 H   -3.839181    0.403090   -0.543587
 H   -0.971507    2.213946   -1.623378
