38 
2v77_ligand_ani-2x.xyz
 O    1.774913    2.509198   -0.144484
 O    0.786772    2.426822   -2.158020
 C    1.676552    2.077174   -1.400847
 C    2.733319    1.056641   -1.733065
 C    2.545953   -0.186802   -0.849817
 C    1.220066   -0.926814   -1.085620
 C    1.323644   -1.830030   -2.304668
 O    2.321941   -2.048641   -2.948512
 O    0.130424   -2.372626   -2.627167
 C    0.748008   -1.687502    0.173105
 C   -0.077558   -0.779672    1.102277
 C   -0.010325   -1.287661    2.535727
 O    0.757993   -2.116655    2.960316
 O   -0.916607   -0.688077    3.338039
 C   -1.538397   -0.631996    0.612319
 C   -2.219142    0.719957    0.909966
 C   -3.707975    0.679368    0.544475
 C   -1.493041    1.809471    0.152569
 O   -1.628434    1.700240   -1.170139
 O   -0.800232    2.664675    0.675764
 H    0.940728    2.976539    0.085202
 H    2.659822    0.812103   -2.794563
 H    3.716877    1.498416   -1.542254
 H    2.597699    0.133550    0.197411
 H    3.369112   -0.885400   -1.018560
 H    0.433553   -0.198922   -1.344947
 H    0.289075   -2.928711   -3.408255
 H    0.143017   -2.555194   -0.111267
 H    1.609004   -2.080460    0.721157
 H    0.394915    0.217505    1.128893
 H   -0.782226   -1.067850    4.222344
 H   -1.567998   -0.794048   -0.472826
 H   -2.141587   -1.432021    1.054210
 H   -2.098911    0.955316    1.967670
 H   -4.214900   -0.091457    1.133584
 H   -4.191909    1.638335    0.754618
 H   -3.844460    0.450426   -0.516774
 H   -0.939584    2.264902   -1.592462
