38 
2v77_ligand_xtb.xyz
 O    1.773941    2.599178   -0.124829
 O    0.691130    2.319642   -2.051058
 C    1.635732    2.080192   -1.329883
 C    2.729357    1.099364   -1.663234
 C    2.535447   -0.148137   -0.786766
 C    1.245846   -0.908589   -1.117312
 C    1.488199   -1.890068   -2.248489
 O    2.558779   -2.243518   -2.659867
 O    0.335778   -2.346252   -2.753505
 C    0.704889   -1.677573    0.102270
 C   -0.114598   -0.771926    1.030635
 C   -0.130641   -1.334638    2.437381
 O    0.098077   -2.473902    2.739573
 O   -0.463611   -0.404367    3.339542
 C   -1.577527   -0.646682    0.551556
 C   -2.226110    0.696736    0.923907
 C   -3.721268    0.686081    0.612031
 C   -1.518738    1.768286    0.119515
 O   -1.725286    1.658993   -1.178312
 O   -0.787861    2.603811    0.605633
 H    0.944225    3.038873    0.174891
 H    2.682672    0.837907   -2.719532
 H    3.695106    1.549839   -1.436195
 H    2.529726    0.159558    0.259393
 H    3.379585   -0.821748   -0.943844
 H    0.467176   -0.225109   -1.469306
 H    0.504958   -2.983678   -3.465080
 H    0.071559   -2.503281   -0.224387
 H    1.542308   -2.108426    0.653522
 H    0.335438    0.223174    1.085803
 H   -0.490859   -0.787092    4.231148
 H   -1.608376   -0.755345   -0.534046
 H   -2.167385   -1.460217    0.979713
 H   -2.061097    0.906900    1.983897
 H   -4.216595   -0.091319    1.188339
 H   -4.168606    1.643679    0.867087
 H   -3.882542    0.497042   -0.446027
 H   -1.088725    2.212712   -1.688764
