33 
2va5_ligand_ani-2x.xyz
 N   65.894346   49.749971    6.580797
 C   67.134631   49.317381    7.008776
 C   68.518185   47.348871    7.417435
 C   69.540115   48.318115    7.733062
 C   69.286811   49.653654    7.652778
 C   70.344319   50.671566    7.962180
 C   71.383523   50.842610    6.830355
 C   72.281607   49.637362    6.636711
 C   73.215069   49.291700    7.642353
 C   74.044188   48.190846    7.532386
 C   73.945233   47.378591    6.389009
 C   74.610371   46.184412    5.931626
 C   74.069951   45.866863    4.721120
 N   73.102330   46.792492    4.389421
 C   73.006321   47.727155    5.393574
 C   72.174480   48.846795    5.500487
 N   68.073711   50.173519    7.264086
 N   67.295163   47.962241    7.084336
 O   68.619719   46.137269    7.414960
 H   65.793661   50.749182    6.704881
 H   65.100425   49.232312    6.933374
 H   66.565883   47.327625    6.774588
 H   70.518945   47.950260    8.008824
 H   69.838856   51.622749    8.144963
 H   70.874138   50.388958    8.881649
 H   70.854639   51.066261    5.896020
 H   72.000600   51.721002    7.060582
 H   73.287428   49.917827    8.530964
 H   71.462038   49.089749    4.714650
 H   74.756007   47.958155    8.320365
 H   75.390493   45.640875    6.447534
 H   74.293088   45.046353    4.051562
 H   72.551727   46.787283    3.546593
