33 
2va5_ligand_aiqm1.xyz
 N   67.330355   49.150344    5.180424
 C   67.964141   48.973594    6.387718
 C   68.427834   47.399875    8.191353
 C   69.298238   48.438436    8.680826
 C   69.432703   49.613808    7.997294
 C   70.407879   50.675921    8.414284
 C   71.389059   50.999843    7.274986
 C   72.185155   49.797613    6.830530
 C   73.445621   49.524319    7.412519
 C   74.191378   48.413818    7.059384
 C   73.681213   47.529955    6.095071
 C   74.148198   46.310978    5.499498
 C   73.186257   45.909911    4.613640
 N   72.144712   46.814317    4.617089
 C   72.422274   47.813664    5.519897
 C   71.669595   48.934875    5.874144
 N   68.724145   49.916160    6.853843
 N   67.790469   47.770045    6.987576
 O   68.206651   46.304080    8.672039
 H   67.318845   50.112278    4.883322
 H   66.456393   48.670822    5.052298
 H   67.231542   47.051284    6.553742
 H   69.875188   48.231990    9.569714
 H   69.858430   51.582350    8.681362
 H   70.950942   50.334692    9.298106
 H   70.813620   51.391740    6.433694
 H   72.065195   51.788267    7.611198
 H   73.834396   50.209128    8.158442
 H   70.698036   49.123153    5.428661
 H   75.152154   48.230649    7.524618
 H   75.071386   45.793334    5.699030
 H   73.150243   45.045433    3.970963
 H   71.305755   46.733325    4.074735
