51 
2va7_ligand_aiqm1.xyz
 C    2.589417    2.761294   -1.197056
 O    3.872717    2.164942   -1.078539
 C    3.918654    0.872164   -0.653756
 C    5.196153    0.307948   -0.566938
 C    5.340564   -0.997329   -0.121286
 C    4.227335   -1.751436    0.245538
 C    2.951577   -1.194849    0.148995
 C    2.799030    0.119060   -0.310021
 C    1.756119   -1.970166    0.563366
 C    1.745732   -2.659072    1.780254
 C    0.597795   -3.321802    2.197703
 C   -0.548663   -3.301807    1.406926
 C   -0.558941   -2.634742    0.176349
 C   -1.810183   -2.635809   -0.673646
 C   -2.194750   -1.309287   -1.339267
 C   -2.490392   -0.101349   -0.434288
 C   -3.311586   -0.500259    0.798034
 C   -3.227336    0.946235   -1.267763
 C   -3.344327    2.277176   -0.574620
 O   -4.267456    3.037123   -0.785127
 N   -2.328633    2.588813    0.314101
 C   -2.370850    3.889270    0.969971
 C   -1.199602    1.776690    0.547093
 N   -1.229133    0.532089   -0.044773
 N   -0.166814    2.128631    1.213264
 C    0.608526   -1.988738   -0.232396
 H    2.768855    3.798499   -1.465761
 H    2.033563    2.714766   -0.260464
 H    2.012359    2.273334   -1.986364
 H    6.051953    0.909494   -0.842064
 H    6.331409   -1.429047   -0.053201
 H    4.345510   -2.768283    0.597234
 H    1.810352    0.554303   -0.350070
 H    2.630481   -2.647473    2.404178
 H    0.587624   -3.843479    3.146124
 H   -1.446283   -3.806922    1.747218
 H   -2.645128   -2.997276   -0.068388
 H   -1.686470   -3.370266   -1.475794
 H   -3.097953   -1.496357   -1.928750
 H   -1.417467   -1.004707   -2.044652
 H   -2.734076   -1.171840    1.433166
 H   -3.591816    0.371756    1.392702
 H   -4.226246   -1.013585    0.491110
 H   -4.235922    0.619532   -1.518084
 H   -2.682729    1.105179   -2.203330
 H   -3.327778    4.334954    0.726780
 H   -1.571622    4.535839    0.604985
 H   -2.283121    3.774308    2.050141
 H   -0.558800   -0.092391    0.385324
 H   -0.243115    3.073883    1.571869
 H    0.621265   -1.458813   -1.178524
