51 
2va7_ligand_xtb.xyz
 C    2.637718    2.776889   -1.285208
 O    3.886879    2.138486   -1.151357
 C    3.909845    0.860844   -0.684269
 C    5.170188    0.268497   -0.580958
 C    5.293448   -1.018293   -0.099822
 C    4.173171   -1.735014    0.286520
 C    2.914412   -1.158697    0.175082
 C    2.783211    0.138550   -0.314129
 C    1.705995   -1.891043    0.586724
 C    1.636948   -2.504248    1.833862
 C    0.477391   -3.144478    2.227235
 C   -0.624022   -3.173284    1.388737
 C   -0.574973   -2.578306    0.134034
 C   -1.770728   -2.636616   -0.778198
 C   -2.204783   -1.299002   -1.393360
 C   -2.490342   -0.143212   -0.413506
 C   -3.222347   -0.616337    0.848490
 C   -3.322207    0.922573   -1.132936
 C   -3.437046    2.191526   -0.318236
 O   -4.442772    2.867165   -0.299068
 N   -2.309263    2.543814    0.371619
 C   -2.317025    3.799714    1.098312
 C   -1.136251    1.761029    0.406847
 N   -1.235814    0.502258   -0.085133
 N   -0.007050    2.151989    0.835621
 C    0.602324   -1.952337   -0.258586
 H    2.861435    3.797865   -1.591113
 H    2.081272    2.784419   -0.343747
 H    2.027091    2.294193   -2.055986
 H    6.034262    0.841931   -0.877133
 H    6.272641   -1.467378   -0.021688
 H    4.270704   -2.744601    0.657003
 H    1.802758    0.586631   -0.350742
 H    2.488321   -2.459743    2.496192
 H    0.424838   -3.617668    3.196883
 H   -1.527861   -3.672195    1.710012
 H   -2.609449   -3.074076   -0.234641
 H   -1.538904   -3.311630   -1.608414
 H   -3.114466   -1.487686   -1.967437
 H   -1.443065   -0.953465   -2.094620
 H   -2.567134   -1.233241    1.457611
 H   -3.535921    0.239543    1.442727
 H   -4.107150   -1.187783    0.580273
 H   -4.329882    0.567737   -1.348176
 H   -2.840459    1.184290   -2.079695
 H   -3.339762    4.172608    1.087060
 H   -1.667022    4.533832    0.616511
 H   -1.995539    3.642759    2.128961
 H   -0.454308   -0.095205    0.148575
 H    0.028970    3.109536    1.158242
 H    0.681519   -1.522943   -1.247479
