51 
2vcg_ligand_xtb.xyz
 C   -7.906607   -6.163017   35.880566
 C   -7.814982   -4.888747   36.409487
 C   -6.906572   -4.645194   37.424730
Br   -6.766560   -2.890869   38.155704
 C   -6.102039   -5.656011   37.920790
 C   -6.206046   -6.924872   37.381424
 C   -7.103175   -7.193642   36.354187
 C   -7.159762   -8.554682   35.723713
 C   -6.021891   -8.715423   34.685457
 C   -6.059440   -7.544576   33.714245
 O   -5.201425   -6.700929   33.662387
 O   -7.152472   -7.557044   32.964630
 C   -7.303856   -6.473781   32.052124
 N   -4.718998   -8.730065   35.305294
 C   -4.126695   -9.870510   35.709036
 O   -4.702158  -10.944673   35.652530
 C   -2.713141   -9.702547   36.238652
 C   -2.300495  -10.890345   37.117056
 C   -2.109157  -10.575907   38.604471
 C   -3.226331   -9.793848   39.306488
 C   -4.654535  -10.246072   39.004894
 C   -4.930663  -11.723556   39.294320
 C   -6.347992  -12.057385   38.883744
 O   -7.264083  -12.309997   39.652594
 N   -6.564086  -12.029590   37.560574
 O   -7.872768  -12.264252   37.117070
 H   -8.618330   -6.358666   35.091787
 H   -8.441763   -4.092387   36.038407
 H   -5.404437   -5.452937   38.718763
 H   -5.584588   -7.716988   37.770131
 H   -7.046253   -9.337487   36.474225
 H   -8.110189   -8.699588   35.210824
 H   -6.172087   -9.660102   34.150180
 H   -4.211607   -7.856359   35.261608
 H   -8.276826   -6.603670   31.586201
 H   -7.251660   -5.522510   32.585001
 H   -6.512974   -6.500411   31.300728
 H   -2.063646   -9.634646   35.362625
 H   -2.633201   -8.758458   36.776901
 H   -3.059078  -11.665443   36.993583
 H   -1.361234  -11.309002   36.751962
 H   -1.964853  -11.527312   39.120285
 H   -1.185596  -10.004101   38.727679
 H   -3.049095   -9.860654   40.382276
 H   -3.151718   -8.736383   39.038786
 H   -5.340048   -9.643005   39.606806
 H   -4.875941  -10.048752   37.957694
 H   -4.240414  -12.358505   38.740366
 H   -4.825691  -11.928658   40.359863
 H   -5.915939  -11.828891   36.807126
 H   -8.343900  -12.461551   37.955026
