51 
2vcg_ligand_aiqm1.xyz
 C   -8.059472   -5.640670   35.241782
 C   -7.972183   -4.345292   35.717205
 C   -7.276615   -4.104160   36.889217
Br   -7.143831   -2.321454   37.549559
 C   -6.682233   -5.136800   37.593095
 C   -6.780576   -6.426781   37.105114
 C   -7.462529   -6.694454   35.923796
 C   -7.499755   -8.086292   35.364388
 C   -6.218576   -8.377947   34.551807
 C   -6.055543   -7.332034   33.463773
 O   -5.153041   -6.534062   33.415481
 O   -7.050972   -7.403184   32.577262
 C   -6.983664   -6.422871   31.530200
 N   -5.025414   -8.338562   35.360472
 C   -4.767350   -9.292343   36.278834
 O   -5.541480  -10.224218   36.469173
 C   -3.489892   -9.143571   37.079146
 C   -2.755075  -10.482397   37.184748
 C   -1.943861  -10.646143   38.472607
 C   -2.772578  -10.499848   39.760771
 C   -4.164369  -11.134938   39.692414
 C   -4.134822  -12.636796   39.389070
 C   -5.510404  -13.168621   39.067822
 O   -6.160660  -13.908420   39.801491
 N   -6.000792  -12.810063   37.861613
 O   -7.322367  -13.177964   37.625303
 H   -8.607264   -5.834539   34.331140
 H   -8.438684   -3.530669   35.184800
 H   -6.151770   -4.934130   38.510754
 H   -6.327378   -7.237968   37.654994
 H   -7.555055   -8.826781   36.163154
 H   -8.356224   -8.213335   34.702681
 H   -6.333788   -9.365146   34.100066
 H   -4.387041   -7.577181   35.202141
 H   -7.854465   -6.600544   30.909871
 H   -7.004196   -5.421334   31.953793
 H   -6.068198   -6.549301   30.957415
 H   -2.845835   -8.365049   36.665552
 H   -3.790649   -8.803775   38.071643
 H   -3.489677  -11.283780   37.124045
 H   -2.100911  -10.603231   36.316331
 H   -1.474184  -11.632875   38.449990
 H   -1.124998   -9.920243   38.493800
 H   -2.211367  -10.935907   40.591211
 H   -2.892924   -9.439434   40.005248
 H   -4.674311  -10.982583   40.647264
 H   -4.763168  -10.619014   38.938457
 H   -3.479484  -12.833947   38.538877
 H   -3.745848  -13.190547   40.242073
 H   -5.747088  -11.954522   37.377963
 H   -7.524438  -13.668283   38.445595
