51 
2vcg_ligand_dft.xyz
 C   -6.656053   -5.942859   36.021600
 C   -6.165501   -5.139553   37.044764
 C   -5.961426   -5.694605   38.302911
Br   -5.270638   -4.615777   39.700930
 C   -6.257257   -7.028484   38.550447
 C   -6.745672   -7.819030   37.514665
 C   -6.940324   -7.294128   36.235760
 C   -7.383780   -8.197639   35.111196
 C   -6.254354   -8.453881   34.067524
 C   -6.152862   -7.315920   33.064842
 O   -5.203304   -6.570973   32.968392
 O   -7.252417   -7.227982   32.318396
 C   -7.271718   -6.160024   31.366424
 N   -4.943540   -8.598584   34.659716
 C   -4.663959   -9.547007   35.576369
 O   -5.458929  -10.455555   35.818131
 C   -3.346159   -9.370206   36.318635
 C   -2.843110  -10.674595   36.946997
 C   -2.215061  -10.539041   38.340688
 C   -3.092093   -9.841820   39.398112
 C   -4.577901  -10.208251   39.357464
 C   -4.887905  -11.696677   39.553794
 C   -6.330882  -12.056131   39.257709
 O   -7.027102  -12.767546   39.978545
 N   -6.861491  -11.518492   38.127056
 O   -8.114877  -12.006542   37.766968
 H   -6.808415   -5.501411   35.040464
 H   -5.941120   -4.093695   36.866671
 H   -6.109096   -7.448448   39.539207
 H   -6.977028   -8.862900   37.710936
 H   -7.677546   -9.166474   35.519059
 H   -8.249659   -7.786939   34.582211
 H   -6.514540   -9.363388   33.515975
 H   -4.313189   -7.819465   34.518666
 H   -8.228099   -6.245124   30.853021
 H   -7.191925   -5.195968   31.874277
 H   -6.444236   -6.264242   30.661424
 H   -2.598155   -8.923347   35.654411
 H   -3.553940   -8.614711   37.088428
 H   -3.692204  -11.362282   36.996156
 H   -2.117447  -11.145771   36.275014
 H   -1.963033  -11.549778   38.685102
 H   -1.261173  -10.001034   38.272938
 H   -2.679711  -10.059345   40.391244
 H   -3.018553   -8.752982   39.279546
 H   -5.110028   -9.637981   40.128389
 H   -4.992879   -9.876094   38.402514
 H   -4.252912  -12.313396   38.905210
 H   -4.690069  -12.010195   40.582192
 H   -6.303698  -11.285263   37.305035
 H   -8.310030  -12.592463   38.528875
