25 
2vcq_ligand_dft.xyz
 C  -32.719299   17.982383   24.481185
 C  -32.842113   16.586618   24.292481
 C  -32.089076   15.527252   24.941582
 C  -32.108853   14.172938   24.840305
 C  -33.655085   18.522094   23.631666
 O  -31.161567   15.902206   25.836940
 N  -30.543763   14.785066   26.351575
 C  -31.104215   13.753315   25.757971
 C  -30.665716   12.381829   26.074143
 C  -29.482338   12.164815   26.788101
 C  -29.072155   10.871977   27.086769
 C  -29.833985    9.780310   26.675232
 C  -31.011878    9.989631   25.964720
 C  -31.426162   11.283460   25.666515
 N  -33.781049   16.286853   23.395926
 N  -34.255144   17.476309   23.013418
 H  -32.043157   18.500601   25.142750
 H  -33.935017   19.543630   23.422712
 H  -32.735467   13.580346   24.193442
 H  -34.990453   17.505039   22.325658
 H  -28.890915   13.018496   27.102227
 H  -32.353131   11.436949   25.121922
 H  -28.151317   10.715128   27.640524
 H  -29.510005    8.770284   26.907920
 H  -31.613138    9.144474   25.643316
