25 
2vcq_ligand_aiqm1.xyz
 C  -32.714327   17.990615   24.482302
 C  -32.831955   16.593557   24.295886
 C  -32.073911   15.537627   24.937765
 C  -32.106967   14.183410   24.829916
 C  -33.661035   18.520890   23.636898
 O  -31.135669   15.908791   25.827478
 N  -30.522630   14.773350   26.329241
 C  -31.099579   13.744996   25.740038
 C  -30.669380   12.373286   26.063788
 C  -29.492032   12.164646   26.790064
 C  -29.079016   10.873866   27.096050
 C  -29.834140    9.777887   26.684352
 C  -31.010020    9.979427   25.965445
 C  -31.425693   11.270094   25.655297
 N  -33.778915   16.282917   23.403254
 N  -34.260364   17.471500   23.024439
 H  -32.043958   18.523524   25.131809
 H  -33.950441   19.535384   23.425892
 H  -32.747540   13.608738   24.189479
 H  -34.997481   17.499161   22.344348
 H  -28.912410   13.020010   27.110728
 H  -32.345712   11.419827   25.105395
 H  -28.167145   10.721209   27.658163
 H  -29.510021    8.773717   26.924222
 H  -31.604658    9.133568   25.646752
