25 
2vcq_ligand_xtb.xyz
 C  -32.658073   17.973184   24.405439
 C  -32.828664   16.573845   24.306168
 C  -32.036573   15.547804   24.927808
 C  -32.125645   14.180665   24.888932
 C  -33.662357   18.498061   23.633781
 O  -30.997410   15.899416   25.707644
 N  -30.401281   14.786175   26.182654
 C  -31.053316   13.744294   25.710551
 C  -30.654609   12.383877   26.041156
 C  -29.558082   12.169544   26.876079
 C  -29.168136   10.884662   27.198433
 C  -29.864773    9.797676   26.693739
 C  -30.954452   10.002830   25.864212
 C  -31.349952   11.286886   25.537671
 N  -33.865671   16.283401   23.527183
 N  -34.352707   17.450608   23.133387
 H  -31.905567   18.487705   24.964260
 H  -33.927773   19.511367   23.411112
 H  -32.848959   13.606195   24.352976
 H  -35.155821   17.473832   22.524783
 H  -29.028275   13.027244   27.259254
 H  -32.200700   11.435574   24.890292
 H  -28.317846   10.726764   27.845695
 H  -29.559091    8.792915   26.946365
 H  -31.499265    9.157475   25.469425
