22 
2vcw_ligand_xtb.xyz
 O    4.745966   12.131958    4.787095
 C    4.246569   13.342118    4.459613
 O    3.629421   13.990103    5.261467
 C    4.507083   13.794338    3.087544
 C    5.201502   13.170966    2.023898
 N    5.200324   13.933022    0.957690
 N    4.523536   15.042173    1.277192
 C    4.089756   15.001498    2.549754
 C    4.353928   16.059315    0.326138
 C    3.485867   17.122444    0.549998
 C    3.350086   18.106396   -0.412664
 C    4.067192   18.036833   -1.595267
 C    4.925452   16.972373   -1.818332
 C    5.072275   15.984717   -0.863518
 H    5.218632   11.718991    4.053610
 H    5.693796   12.217533    1.986493
 H    3.540063   15.786543    3.023759
 H    2.911216   17.184769    1.460204
 H    2.675858   18.930784   -0.236481
 H    3.954824   18.808669   -2.341187
 H    5.484743   16.911320   -2.739445
 H    5.733811   15.147634   -1.017463
