22 
2vcw_ligand_aiqm1.xyz
 O    4.738074   12.161102    4.836123
 C    4.354313   13.415359    4.499194
 O    3.895945   14.153585    5.329196
 C    4.532901   13.797089    3.090253
 C    5.049683   13.077391    1.988133
 N    5.039779   13.805651    0.880913
 N    4.510122   14.992606    1.250355
 C    4.202255   15.030812    2.561950
 C    4.349277   16.034724    0.290868
 C    3.384768   17.020235    0.489744
 C    3.253108   18.040014   -0.448389
 C    4.069894   18.071570   -1.575654
 C    5.020282   17.070784   -1.768294
 C    5.165975   16.048509   -0.837068
 H    5.078935   11.708252    4.059151
 H    5.427841   12.069939    1.943885
 H    3.797319   15.899242    3.051395
 H    2.736513   16.986037    1.354982
 H    2.504871   18.805608   -0.296756
 H    3.962064   18.865989   -2.300697
 H    5.651312   17.084702   -2.646240
 H    5.886669   15.255302   -0.972944
