43 
2vi5_ligand_aiqm1.xyz
 O   -1.281221   -3.482572    1.825499
 C   -0.360520   -2.767939    1.525107
 N    0.962720   -3.321857    1.632424
 C    2.087963   -2.779150    1.105899
 O    3.089119   -3.406481    0.832378
 N   -0.472936   -1.470371    1.084068
 C    0.591055   -0.772699    0.780752
 C    2.029097   -1.271928    0.914013
 N    2.889313   -0.953107   -0.199251
 C    3.493621    0.260176   -0.347326
 C    4.619411    0.327972   -1.353769
 C    4.395992    1.456519   -2.358333
 O    3.114318    1.244044    0.279044
 N    0.446209    0.483168    0.364327
 C   -0.872460    1.124062    0.336600
 C   -1.680969    0.653360   -0.869348
 O   -1.050375    1.049131   -2.093912
 C   -3.081202    1.240951   -0.949486
 O   -3.032816    2.655303   -1.087971
 C   -3.984023    0.967026    0.249535
 O   -3.600677    1.725894    1.389890
 C   -3.999974   -0.483868    0.696944
 O   -4.991596   -0.666517    1.689595
 H    0.981590   -4.316846    1.798758
 H    2.415973   -0.808182    1.823608
 H    3.368032   -1.762704   -0.571880
 H    5.531843    0.515553   -0.783577
 H    4.738373   -0.631745   -1.858653
 H    5.261370    1.558285   -3.009917
 H    4.239923    2.399007   -1.837093
 H    3.521095    1.261981   -2.981471
 H    1.290079    1.046332    0.306856
 H   -1.410829    0.878261    1.243287
 H   -0.735622    2.200448    0.285445
 H   -1.758887   -0.436006   -0.837239
 H   -0.143225    0.736498   -2.061265
 H   -3.550223    0.798109   -1.836910
 H   -2.445638    2.838117   -1.825663
 H   -4.994621    1.260808   -0.058124
 H   -3.579465    2.646381    1.116234
 H   -3.013048   -0.780237    1.067430
 H   -4.269903   -1.126561   -0.140400
 H   -4.756467   -0.088817    2.420394
