43 
2vi5_ligand_xtb.xyz
 O   -0.863984   -3.284315    3.027176
 C   -0.039967   -2.589157    2.502678
 N    1.313573   -3.077001    2.439741
 C    2.302169   -2.546590    1.698674
 O    3.278579   -3.156154    1.316752
 N   -0.273302   -1.385311    1.948460
 C    0.653201   -0.645183    1.429305
 C    2.121082   -1.064077    1.337052
 N    2.782698   -0.915834    0.048470
 C    2.935556    0.145247   -0.760394
 C    3.870938   -0.113290   -1.922732
 C    3.755036    0.969008   -2.989106
 O    2.369472    1.220951   -0.602994
 N    0.388807    0.585030    1.031150
 C   -0.938172    1.121454    0.872555
 C   -1.280263    1.191657   -0.627033
 O   -0.470509    2.138691   -1.296484
 C   -2.726426    1.660407   -0.880790
 O   -2.896263    2.969669   -0.386630
 C   -3.830629    0.800854   -0.238490
 O   -3.881718    0.987723    1.156928
 C   -3.686205   -0.702876   -0.504493
 O   -4.855912   -1.387348   -0.152388
 H    1.422001   -4.044235    2.728439
 H    2.659083   -0.480733    2.105165
 H    3.357450   -1.735931   -0.138496
 H    4.889729   -0.137548   -1.526077
 H    3.655102   -1.095759   -2.346775
 H    4.481210    0.797918   -3.778649
 H    3.933830    1.947329   -2.551135
 H    2.758761    0.969196   -3.424222
 H    1.153772    1.096020    0.568862
 H   -1.642710    0.479567    1.399516
 H   -0.964561    2.130498    1.291425
 H   -1.146273    0.194170   -1.070222
 H    0.465893    1.911853   -1.203352
 H   -2.872583    1.651944   -1.972488
 H   -2.151127    3.486906   -0.719129
 H   -4.784689    1.133339   -0.680395
 H   -3.848412    1.940726    1.310188
 H   -2.829592   -1.093488    0.060229
 H   -3.533925   -0.879596   -1.571359
 H   -5.030321   -1.195931    0.777568
