14 
2vj1_ligand_aiqm1.xyz
 C  -20.951981  -12.878995   37.207079
 C  -22.051078  -12.280534   36.594930
 C  -22.792485  -11.327715   37.288009
 C  -22.436541  -10.974207   38.588162
 C  -23.235729   -9.959806   39.309455
 O  -23.008658   -9.585351   40.439498
 C  -21.332359  -11.575966   39.201836
 C  -20.594438  -12.525964   38.508504
 H  -20.373326  -13.620251   36.671115
 H  -22.329133  -12.553169   35.586144
 H  -23.649662  -10.856344   36.820321
 H  -24.086745   -9.545072   38.736414
 H  -21.075115  -11.286004   40.211076
 H  -19.739851  -12.993622   38.979357
