14 
2vj1_ligand_xtb.xyz
 C  -20.956818  -12.871495   37.213470
 C  -22.051020  -12.276924   36.602992
 C  -22.792544  -11.330354   37.283585
 C  -22.441626  -10.971860   38.584624
 C  -23.221785   -9.967768   39.316955
 O  -22.998977   -9.592439   40.439634
 C  -21.338965  -11.575046   39.191720
 C  -20.601276  -12.520440   38.507361
 H  -20.379582  -13.611033   36.678264
 H  -22.322818  -12.554448   35.595319
 H  -23.646395  -10.863533   36.813253
 H  -24.073744   -9.556932   38.737151
 H  -21.083107  -11.284147   40.199675
 H  -19.748444  -12.986580   38.977898
