22 
2vjx_ligand_ani-2x.xyz
 O    0.423631   -2.112445   -0.013387
 C   -0.121319   -0.819750   -0.220503
 C   -1.346378   -0.643351    0.662005
 O   -2.314289   -1.593025    0.300252
 C   -1.925627    0.758474    0.559173
 N   -1.033895    1.773457    0.404667
 C    0.289073    1.623905   -0.198696
 C    0.904698    0.258240    0.104908
 C    2.203740    0.060845   -0.681407
 O    2.969092   -1.026472   -0.227092
 O   -3.131159    0.932712    0.673371
 H   -0.300611   -2.742912   -0.131218
 H   -0.427207   -0.718874   -1.274557
 H   -1.027737   -0.796465    1.707978
 H   -3.168515   -1.149765    0.438586
 H   -1.462945    2.688073    0.349180
 H    0.237316    1.756240   -1.292702
 H    0.930651    2.421125    0.190751
 H    1.145009    0.198423    1.175164
 H    1.956293   -0.034105   -1.755246
 H    2.831329    0.952463   -0.573557
 H    2.368648   -1.786692   -0.197569
