22 
2vjx_ligand_xtb.xyz
 O    0.422273   -2.109617   -0.097870
 C   -0.131076   -0.823904   -0.256004
 C   -1.340129   -0.647889    0.666664
 O   -2.327512   -1.601184    0.373868
 C   -1.927752    0.753486    0.547151
 N   -1.061073    1.752300    0.317407
 C    0.301120    1.629605   -0.161560
 C    0.901539    0.250150    0.102455
 C    2.202832    0.067226   -0.698583
 O    2.971373   -1.000542   -0.232175
 O   -3.123946    0.923986    0.685454
 H   -0.314936   -2.732034   -0.054526
 H   -0.460675   -0.693513   -1.301039
 H   -1.002755   -0.779977    1.711159
 H   -3.181368   -1.144005    0.461970
 H   -1.478016    2.670652    0.233262
 H    0.318905    1.823815   -1.243412
 H    0.909513    2.395771    0.327723
 H    1.147934    0.143064    1.163583
 H    1.954249   -0.061718   -1.763842
 H    2.827483    0.959482   -0.595611
 H    2.391817   -1.775052   -0.185976
