37 
2vk6_ligand_dft.xyz
 C   -3.866191    0.177753    0.080929
 C   -2.464085   -0.288206   -0.099420
 C   -2.150739   -1.582712   -0.050417
 C   -0.736558   -2.091363   -0.109982
 C    0.250603   -0.898635   -0.037154
 C   -0.330866    0.263418   -0.865662
 C    0.481409    1.548884   -1.065931
 C    0.838537    2.393912    0.165096
 C    1.655400    1.701412    1.254778
 C    2.417279   -2.131425   -0.033780
 C    3.814775   -2.148328   -0.617669
 N    1.580814   -1.202861   -0.549814
 O   -3.979465    1.514371    0.030315
 O   -4.806885   -0.560130    0.258039
 O   -0.605939   -2.976326    0.968288
 O   -1.556714    0.705988   -0.310726
 O    1.657932    1.240109   -1.794409
 O    1.616923    3.449072   -0.383035
 O    2.194600    2.750763    2.045738
 O    2.097563   -2.931587    0.844079
 H   -2.937921   -2.306886    0.120334
 H   -0.564194   -2.602535   -1.074270
 H    0.304780   -0.620407    1.021317
 H   -0.525905   -0.133863   -1.875253
 H   -0.162616    2.194372   -1.679646
 H   -0.086017    2.787801    0.605607
 H    1.013483    1.053226    1.861077
 H    2.452588    1.096563    0.801570
 H    3.985331   -3.122846   -1.083032
 H    3.991087   -1.363839   -1.358020
 H    4.535362   -2.046201    0.197967
 H    1.963715   -0.517563   -1.193599
 H   -4.921587    1.702987    0.167168
 H    0.350098   -3.162229    1.062661
 H    2.189415    2.052132   -1.741673
 H    2.109779    3.822735    0.363916
 H    2.835399    2.380232    2.661532
