50 
2vle_ligand_ani-2x.xyz
 O   -2.416091    2.490242   -0.895498
 C   -3.799306    2.236170   -0.790283
 C   -4.039768    0.734332   -0.695584
 O   -3.204744    0.292066    0.377832
 C   -5.487298    0.338784   -0.423031
 O   -6.262140    0.714445   -1.538073
 C   -5.571057   -1.163884   -0.179849
 O   -6.896771   -1.452300    0.212396
 C   -4.567689   -1.594781    0.876854
 O   -4.633829   -3.003554    0.966842
 C   -3.174122   -1.108064    0.496559
 O   -2.287953   -1.465838    1.517212
 C   -0.961324   -1.184333    1.346411
 C   -0.117591   -1.613053    2.384029
 C    1.233848   -1.368016    2.300767
 C    1.784986   -0.697064    1.197934
 C    0.924934   -0.290724    0.187902
 C   -0.448228   -0.524236    0.238191
 O    1.381259    0.380578   -0.912184
 C    2.706820    0.592910   -1.033757
 C    3.654555    0.249426   -0.135215
 C    3.232083   -0.424492    1.115501
 O    4.001543   -0.748096    2.008657
 C    5.081570    0.569592   -0.389357
 C    5.625907    0.464859   -1.679468
 C    6.944825    0.798923   -1.938396
 C    7.756267    1.266531   -0.904546
 O    9.038285    1.593606   -1.214297
 C    7.239146    1.374183    0.384610
 C    5.922771    1.018115    0.633618
 H   -2.022069    2.034149   -0.135396
 H   -4.235111    2.733554    0.092515
 H   -4.287832    2.639910   -1.681015
 H   -3.711057    0.261024   -1.635546
 H   -5.822590    0.853264    0.493712
 H   -7.160256    0.399028   -1.366036
 H   -5.327791   -1.680257   -1.126587
 H   -6.927923   -2.399357    0.408145
 H   -4.838658   -1.119250    1.833563
 H   -3.978467   -3.272206    1.624378
 H   -2.842123   -1.565564   -0.451666
 H   -0.546853   -2.128487    3.237757
 H    1.907229   -1.687425    3.090894
 H   -1.061743   -0.164079   -0.578990
 H    2.918202    1.126691   -1.956063
 H    5.024842    0.080588   -2.499724
 H    7.360179    0.712386   -2.937729
 H    9.487810    1.899613   -0.416609
 H    7.868569    1.727060    1.199964
 H    5.534952    1.072429    1.644755
