50 
2vle_ligand_aiqm1.xyz
 O   -2.927896    2.875144   -0.925151
 C   -4.199587    2.349108   -0.602661
 C   -4.198365    0.835286   -0.620161
 O   -3.292144    0.410720    0.408188
 C   -5.582258    0.249643   -0.353889
 O   -6.423493    0.645073   -1.416882
 C   -5.497635   -1.262635   -0.261154
 O   -6.793254   -1.734538    0.065312
 C   -4.470265   -1.657368    0.780481
 O   -4.369174   -3.068053    0.740247
 C   -3.142344   -0.989601    0.446783
 O   -2.261150   -1.307950    1.477640
 C   -0.929424   -1.033541    1.325236
 C   -0.119818   -1.421019    2.406001
 C    1.238662   -1.208753    2.341515
 C    1.822731   -0.616441    1.209537
 C    0.989332   -0.245018    0.157362
 C   -0.391386   -0.441550    0.194546
 O    1.478088    0.336081   -0.972610
 C    2.811774    0.534524   -1.060790
 C    3.726843    0.225558   -0.119915
 C    3.270385   -0.388279    1.140661
 O    4.011771   -0.697679    2.063282
 C    5.159825    0.514998   -0.376451
 C    5.715816    0.293088   -1.642477
 C    7.049162    0.581221   -1.907422
 C    7.850313    1.103435   -0.896433
 O    9.151966    1.376896   -1.204821
 C    7.318146    1.324653    0.371581
 C    5.984593    1.029659    0.625663
 H   -2.330076    2.665587   -0.204184
 H   -4.539104    2.697728    0.379315
 H   -4.895061    2.703294   -1.361025
 H   -3.842446    0.480678   -1.599422
 H   -5.958792    0.631079    0.605970
 H   -7.262268    0.190066   -1.304836
 H   -5.180305   -1.666950   -1.229910
 H   -6.742336   -2.688831    0.156157
 H   -4.791328   -1.305363    1.765717
 H   -3.789103   -3.350930    1.449893
 H   -2.757176   -1.355140   -0.516524
 H   -0.584513   -1.875859    3.269442
 H    1.892819   -1.491591    3.153952
 H   -0.981071   -0.109028   -0.645178
 H    3.070153    0.996040   -2.002624
 H    5.107100   -0.133302   -2.432540
 H    7.479201    0.400185   -2.883086
 H    9.593650    1.703078   -0.418088
 H    7.947300    1.719816    1.162082
 H    5.582345    1.176180    1.617770
