27 
2vmd_ligand_aiqm1.xyz
 C   -1.093891   -0.315930   -0.005845
 C   -0.224216   -1.540130    0.220812
 C    0.902964   -1.195314    1.170920
 C    1.698881   -0.025754    0.607623
 C    0.753323    1.127950    0.265675
 C    1.443800    2.264965   -0.452285
 C   -3.080206    0.319080   -1.097094
 O   -2.103982   -0.691477   -0.872023
 O   -0.951081   -2.610333    0.798577
 O    1.796825   -2.284928    1.322402
 O    2.396018   -0.416893   -0.558937
 O   -0.314137    0.709288   -0.587353
 O    0.578154    3.378027   -0.600643
 H   -1.520434    0.054885    0.945267
 H    0.196443   -1.822638   -0.748351
 H    0.478983   -0.917506    2.143098
 H    2.406068    0.312385    1.374547
 H    0.331922    1.496981    1.214536
 H    2.286698    2.607025    0.146813
 H    1.815258    1.909930   -1.416673
 H   -3.479523    0.682974   -0.146292
 H   -2.664773    1.153448   -1.660928
 H   -3.876163   -0.147239   -1.670455
 H   -1.680782   -2.815354    0.210385
 H    1.259672   -3.066860    1.471751
 H    2.775439   -1.279160   -0.362765
 H   -0.131060    3.112779   -1.190161
