27 
2vmd_ligand_dft.xyz
 C    0.317432    1.159834   -0.203071
 C    1.474537    0.239520    0.161705
 C    1.305250   -1.092037   -0.552010
 C   -0.061552   -1.697226   -0.225069
 C   -1.160548   -0.660946   -0.468241
 C   -2.530191   -1.106428    0.022667
 C   -0.379574    3.382819    0.081880
 O    0.505765    2.351329    0.472465
 O    2.723587    0.766868   -0.230645
 O    2.287919   -2.018478   -0.136036
 O   -0.094133   -2.116302    1.118198
 O   -0.893847    0.567912    0.199950
 O   -3.510928   -0.139975   -0.277850
 H    0.296158    1.335694   -1.297914
 H    1.427067    0.072986    1.246539
 H    1.376873   -0.915509   -1.637077
 H   -0.240830   -2.547879   -0.903116
 H   -1.219051   -0.472509   -1.553693
 H   -2.819627   -2.030096   -0.486349
 H   -2.469031   -1.309662    1.099153
 H   -0.306802    3.573300   -0.998215
 H   -1.415687    3.134080    0.333635
 H   -0.078712    4.278499    0.627464
 H    2.814329    1.623744    0.206243
 H    3.126127   -1.536637   -0.108540
 H    0.765745   -2.533089    1.278281
 H   -3.195586    0.683029    0.117771
