20 
2vpn_ligand_ani-2x.xyz
 O   -1.497556    1.944334    0.730496
 C   -1.840109    0.757665    0.191478
 O   -2.818476    0.143648    0.542195
 C   -0.886690    0.330496   -0.925525
 C   -0.884644   -1.177954   -1.099912
 C   -0.195037   -1.817161    0.108774
 N    1.068155   -1.203412    0.486239
 C    1.299617   -0.009431    0.107754
 C    2.575417    0.667885    0.519877
 N    0.483088    0.766080   -0.712729
 H   -2.173497    2.138915    1.401160
 H   -1.261018    0.816037   -1.836795
 H   -0.342503   -1.423092   -2.020981
 H   -1.908350   -1.549714   -1.192209
 H   -0.011009   -2.880067   -0.079483
 H   -0.865385   -1.771410    0.975872
 H    3.149903    0.976370   -0.359843
 H    2.367304    1.561849    1.120253
 H    3.164789   -0.031745    1.115514
 H    0.576300    1.761006   -0.552036
