21 
2vpo_ligand_aiqm1.xyz
 O   16.086145   24.353105   32.941958
 C   16.449415   23.547947   32.111984
 O   16.217109   23.696750   30.808316
 C   17.162607   22.255175   32.449477
 N   18.271956   22.058334   31.514254
 C   19.244570   21.330774   31.934088
 C   20.417669   21.054698   31.034341
 N   19.336957   20.760441   33.175736
 C   18.285876   20.906445   34.164093
 C   17.582988   22.226264   33.917884
 O   16.480209   22.284147   34.795931
 H   15.739597   24.532986   30.715307
 H   16.418261   21.463608   32.297466
 H   20.117069   20.162608   33.371281
 H   20.307229   21.628830   30.120201
 H   21.349905   21.324862   31.530958
 H   20.457173   19.992371   30.791529
 H   17.550199   20.098821   34.109808
 H   18.720721   20.906042   35.161964
 H   18.285680   23.047386   34.106643
 H   16.065665   23.141407   34.651782
