15 
2vtm_ligand_ani-2x.xyz
 N   24.255499    4.325540   62.820368
 C   25.214486    4.383178   63.469944
 C   26.387009    4.404004   64.275430
 C   27.011124    3.329924   64.949437
 N   28.091662    3.697550   65.612850
 N   28.191540    5.024234   65.382109
 C   29.167811    5.825986   65.875516
 C   29.124400    7.144664   65.547543
 C   28.062627    7.592557   64.712689
 N   27.117306    6.820166   64.234038
 C   27.181912    5.516229   64.573346
 H   26.698774    2.292343   64.968132
 H   29.909854    5.340876   66.497866
 H   29.875309    7.836043   65.910148
 H   28.009288    8.645106   64.437984
