15 
2vtm_ligand_aiqm1.xyz
 N   24.261904    4.345074   62.821020
 C   25.220009    4.379904   63.474135
 C   26.392253    4.404377   64.278860
 C   27.004996    3.327169   64.945753
 N   28.097943    3.693336   65.618301
 N   28.196644    5.019042   65.386762
 C   29.174386    5.825879   65.880133
 C   29.121921    7.145327   65.545685
 C   28.054551    7.593484   64.706742
 N   27.112746    6.815837   64.231722
 C   27.188184    5.510583   64.578874
 H   26.688109    2.297674   64.959410
 H   29.915320    5.345004   66.500937
 H   29.868594    7.835998   65.905719
 H   28.001039    8.639711   64.433346
