44 
2vvs_ligand_dft.xyz
 C   -2.534593    4.386149    0.301159
 C   -3.138506    3.025935    0.032793
 O   -4.343659    2.898396   -0.180383
 N   -2.261997    1.994346    0.031880
 C   -2.545602    0.647826   -0.446960
 C   -3.652796   -0.098511    0.327536
 O   -4.945499    0.307668   -0.018459
 C   -3.615814   -1.587493   -0.009087
 O   -4.573720   -2.282123    0.745221
 C   -2.252690   -2.172022    0.296482
 C   -2.089254   -3.631342   -0.085813
 O   -0.786457   -4.087345    0.185779
 O   -1.256415   -1.466522   -0.482292
 C   -1.235252   -0.132136   -0.405530
 N   -0.158777    0.549516   -0.395360
 O    0.971647   -0.251652   -0.387424
 C    2.113129    0.498093   -0.174496
 O    2.132407    1.681154    0.038504
 N    3.160762   -0.369901   -0.247530
 C    4.528581   -0.091280   -0.054061
 C    5.022385    1.195884    0.171120
 C    6.390722    1.376609    0.348540
 C    7.273201    0.302450    0.303530
 C    6.773181   -0.976736    0.077059
 C    5.410770   -1.175101   -0.100499
 H   -3.225836    4.963891    0.916866
 H   -2.416635    4.908621   -0.653595
 H   -1.559498    4.333574    0.791676
 H   -1.273633    2.200309    0.125425
 H   -2.872548    0.686555   -1.497514
 H   -3.461441    0.023845    1.407187
 H   -4.957196    1.289162   -0.050792
 H   -3.809289   -1.691927   -1.090444
 H   -5.385158   -1.756827    0.681020
 H   -2.007795   -2.043213    1.357624
 H   -2.780391   -4.230811    0.509255
 H   -2.352413   -3.753432   -1.148413
 H   -0.185211   -3.490081   -0.278045
 H    2.916441   -1.331739   -0.431654
 H    4.342119    2.035624    0.206976
 H    6.767276    2.380084    0.523343
 H    8.337769    0.459047    0.444211
 H    7.445021   -1.828897    0.039421
 H    5.027301   -2.178078   -0.273689
