44 
2vvs_ligand_xtb.xyz
 C   -1.996553    3.934629   -1.758054
 C   -2.803980    2.681791   -1.528362
 O   -4.003065    2.619628   -1.740725
 N   -2.067750    1.661465   -1.040694
 C   -2.482897    0.277422   -0.866528
 C   -3.771094    0.101775   -0.038106
 O   -4.929154    0.346698   -0.777166
 C   -3.875636   -1.364166    0.415266
 O   -5.038225   -1.564102    1.164601
 C   -2.674499   -1.736734    1.272393
 C   -2.664137   -3.226773    1.634377
 O   -1.610318   -3.546407    2.496919
 O   -1.441493   -1.474137    0.601645
 C   -1.308849   -0.457164   -0.247468
 N   -0.177147   -0.047018   -0.642520
 O    0.965206   -0.673418   -0.126396
 C    2.080162    0.120714   -0.289593
 O    2.046606    1.244233   -0.702851
 N    3.148417   -0.603956    0.121674
 C    4.494388   -0.220286    0.176479
 C    4.931861    1.034702   -0.232294
 C    6.276852    1.348588   -0.153014
 C    7.191960    0.427824    0.327976
 C    6.755062   -0.821949    0.734386
 C    5.414159   -1.147176    0.660350
 H   -2.656963    4.733880   -2.081450
 H   -1.246107    3.753572   -2.524077
 H   -1.489642    4.228305   -0.842409
 H   -1.062029    1.773439   -0.991005
 H   -2.680096   -0.175048   -1.854292
 H   -3.723835    0.757494    0.848930
 H   -4.828323    1.226111   -1.214852
 H   -3.891375   -1.997180   -0.489741
 H   -5.746297   -1.091709    0.702690
 H   -2.694078   -1.146912    2.199266
 H   -3.592159   -3.465788    2.154972
 H   -2.606246   -3.814286    0.706653
 H   -0.789809   -3.241623    2.090379
 H    2.941835   -1.542403    0.436842
 H    4.221236    1.751443   -0.607238
 H    6.610357    2.324579   -0.471973
 H    8.239508    0.680920    0.386208
 H    7.460033   -1.547911    1.111021
 H    5.074414   -2.123067    0.977982
