78 
2vw5_ligand_xtb.xyz
 O   41.150480   -5.153728   41.764832
 C   41.125479   -5.713328   40.684146
 C   41.457717   -7.156531   40.548121
 C   42.554502   -7.651000   41.443677
 C   40.692120   -7.968468   39.817655
 C   40.833082   -9.458236   39.808779
 C   40.108945  -10.138326   38.646172
 C   38.581757  -10.035454   38.699913
 C   37.996737  -10.870964   39.836331
 N   40.671587   -5.040306   39.584603
 C   40.860953   -5.295310   38.220589
 C   39.869230   -4.889184   37.332699
 C   40.048898   -5.069064   35.968902
 O   39.103936   -4.695123   35.064214
 C   41.219837   -5.647248   35.494059
 C   42.214188   -6.053762   36.372328
 C   42.030103   -5.870445   37.737486
 C   43.468138   -6.686878   35.842310
 C   43.379289   -8.226686   35.770211
 C   43.297870   -8.823739   37.169921
 C   42.193903   -8.633253   34.891670
 C   42.023785  -10.143567   34.703118
 O   43.297125  -10.700068   34.457135
 C   43.374270  -12.097223   34.536497
 C   41.027239  -10.432543   33.553471
 O   41.554155   -9.854327   32.381176
 C   39.607903   -9.902132   33.857537
 C   38.629217  -10.331491   32.755276
 C   39.102973  -10.441683   35.160323
 C   38.543456   -9.760811   36.154032
 C   38.330627   -8.274896   36.179518
 C   38.000037  -10.504739   37.356595
 O   36.574208  -10.314336   37.405532
 C   35.837488  -11.167857   36.670435
 O   36.268616  -12.091236   36.030752
 N   34.524775  -10.834489   36.744351
 H   40.254617   -4.144248   39.807848
 H   43.393326   -8.015126   40.850240
 H   42.894822   -6.841590   42.084041
 H   42.205486   -8.469418   42.070761
 H   39.893653   -7.554480   39.219034
 H   41.892927   -9.720390   39.763017
 H   40.456655   -9.850716   40.758665
 H   40.459853   -9.702014   37.709514
 H   40.382923  -11.196105   38.634102
 H   38.282639   -8.995006   38.847568
 H   38.311428  -11.908953   39.747422
 H   38.319069  -10.489824   40.801672
 H   36.910789  -10.835945   39.804368
 H   38.187864  -11.578268   37.231076
 H   38.965742   -4.427166   37.709217
 H   42.806133   -6.147555   38.432709
 H   38.354610   -4.292664   35.518996
 H   41.341100   -5.759784   34.429187
 H   43.665902   -6.304032   34.840130
 H   44.310405   -6.419133   36.482918
 H   44.291428   -8.592342   35.291690
 H   43.303550   -9.908571   37.120800
 H   44.154965   -8.509526   37.762691
 H   42.391749   -8.494678   37.670388
 H   41.272857   -8.246140   35.325543
 H   42.333049   -8.200357   33.901231
 H   41.600481  -10.596870   35.617114
 H   40.959689  -11.526765   33.432714
 H   42.916747  -12.592799   33.672832
 H   44.435334  -12.342216   34.557962
 H   42.895660  -12.471596   35.451756
 H   41.011955  -10.126249   31.633698
 H   39.656560   -8.812309   33.873883
 H   37.622578  -10.016222   33.018721
 H   38.886191   -9.878194   31.799447
 H   38.624961  -11.414562   32.648075
 H   39.161258  -11.519740   35.241393
 H   37.400086   -8.052903   36.698398
 H   39.144436   -7.777162   36.708707
 H   38.276723   -7.859392   35.177893
 H   34.223250  -10.112006   37.372124
 H   33.847923  -11.446553   36.327089
