78 
2vw5_ligand_ani-2x.xyz
 O   41.779553   -5.147510   41.887591
 C   41.414200   -5.755339   40.893179
 C   41.528727   -7.244250   40.806396
 C   42.567691   -7.860611   41.701908
 C   40.713125   -7.961212   40.020256
 C   40.751469   -9.458610   39.891550
 C   40.032182   -9.987936   38.644971
 C   38.511527   -9.761151   38.604843
 C   37.806232  -10.414422   39.795786
 N   40.833140   -5.050614   39.849355
 C   40.862772   -5.308312   38.448363
 C   39.730336   -4.982485   37.702365
 C   39.720440   -5.207745   36.332009
 O   38.609871   -4.973199   35.568803
 C   40.842879   -5.724642   35.691064
 C   41.987885   -6.037379   36.423867
 C   41.984167   -5.832365   37.806609
 C   43.216081   -6.594569   35.733320
 C   43.296871   -8.137029   35.662050
 C   43.408023   -8.757419   37.056733
 C   42.134773   -8.717256   34.844399
 C   42.177488  -10.233670   34.672201
 O   43.499753  -10.574754   34.313112
 C   43.735230  -11.951571   34.174507
 C   41.164266  -10.734693   33.626715
 O   41.655885  -10.349309   32.357461
 C   39.721330  -10.222888   33.828459
 C   38.750007  -10.904910   32.851339
 C   39.251814  -10.490810   35.228005
 C   38.540955   -9.691950   36.032003
 C   38.285759   -8.231580   35.810541
 C   37.929718  -10.296121   37.285928
 O   36.509623  -10.021703   37.298374
 C   35.796597  -10.756105   36.417385
 O   36.260854  -11.606695   35.687669
 N   34.480271  -10.386314   36.438693
 H   40.672704   -4.085225   40.113602
 H   43.492451   -8.075712   41.148521
 H   42.820093   -7.167726   42.506027
 H   42.217054   -8.800380   42.143035
 H   39.964286   -7.438943   39.425381
 H   41.797981   -9.797811   39.867355
 H   40.328357   -9.917523   40.798535
 H   40.488582   -9.512426   37.765274
 H   40.220491  -11.067729   38.552128
 H   38.295191   -8.684673   38.633249
 H   38.002378  -11.494454   39.815033
 H   38.153056   -9.992825   40.744457
 H   36.725242  -10.268352   39.735096
 H   38.055720  -11.385012   37.257958
 H   38.858536   -4.574852   38.211695
 H   42.860953   -6.094993   38.395423
 H   37.922355   -4.616425   36.145376
 H   40.801467   -5.888840   34.617115
 H   43.267421   -6.195375   34.710718
 H   44.114394   -6.228891   36.250583
 H   44.221273   -8.377115   35.121017
 H   43.553831   -9.840945   36.998501
 H   44.262206   -8.335553   37.599764
 H   42.511201   -8.570034   37.659326
 H   41.174551   -8.458462   35.308379
 H   42.144935   -8.265522   33.841765
 H   41.938844  -10.720560   35.634216
 H   41.123563  -11.836729   33.702559
 H   43.273759  -12.355412   33.264278
 H   44.818285  -12.084583   34.105079
 H   43.365877  -12.519236   35.044280
 H   41.069318  -10.730666   31.692652
 H   39.716614   -9.146864   33.615732
 H   37.718691  -10.638083   33.104159
 H   38.925708  -10.611622   31.809300
 H   38.836069  -11.994876   32.922802
 H   39.435612  -11.520442   35.552788
 H   38.624897   -7.651683   36.675675
 H   38.801063   -7.853084   34.922676
 H   37.212717   -8.039038   35.700295
 H   34.132560   -9.865810   37.227770
 H   33.844220  -11.006390   35.963613
