82 
2vwc_ligand_ani-2x.xyz
 O   -0.601763    0.569347   -2.451337
 C   -1.620551    1.067177   -1.990697
 C   -1.558136    2.404476   -1.321258
 C   -2.660412    3.051191   -0.898729
 C   -3.987313    2.432861   -1.036273
 O   -5.009323    3.013852   -0.695822
 C   -4.033966    1.076703   -1.612215
 N   -0.244485    2.829657   -1.147231
 C    0.213767    3.962087   -0.501980
 O   -0.485199    4.934011   -0.258047
 C    1.659751    3.950345   -0.111416
 C    2.211846    5.305570    0.210337
 C    2.361311    2.806860    0.017441
 C    3.662487    2.698004    0.668254
 C    4.501800    1.649402    0.641730
 C    4.393543    0.367439   -0.159323
 C    4.384071    0.632460   -1.674306
 C   -2.933044    0.406899   -2.020712
 C   -2.991997   -1.034649   -2.467945
 O   -4.189600   -1.278338   -3.177099
 C   -4.215658   -0.690841   -4.457470
 C   -2.966230   -2.032547   -1.285007
 C   -3.189444   -3.462251   -1.787886
 C   -1.661275   -1.927029   -0.464816
 C   -1.882943   -1.539624    0.999928
 O   -2.608433   -0.331425    1.017018
 C   -3.367597   -0.125590    2.188765
 C   -0.556151   -1.482637    1.798155
 O   -0.800285   -1.475054    3.193749
 C   -1.097199   -2.735139    3.745352
 C    0.378337   -0.288322    1.496008
 C   -0.134528    1.070901    1.982104
 C    1.690342   -0.598618    2.181573
 C    2.913007   -0.758433    1.662880
 C    4.046303   -1.237206    2.537376
 C    3.231682   -0.596682    0.190891
 O    3.689175   -1.878215   -0.324448
 C    2.726691   -2.784659   -0.561339
 O    1.533494   -2.577767   -0.449714
 N    3.259678   -3.969547   -0.978230
 H   -2.591839    4.032227   -0.449560
 H   -5.016700    0.630366   -1.695062
 H    0.425609    2.189407   -1.548517
 H    1.928323    6.019592   -0.569291
 H    3.301337    5.304105    0.299670
 H    1.775326    5.682832    1.142073
 H    1.945840    1.862033   -0.347566
 H    3.977083    3.568201    1.239164
 H    5.410045    1.750718    1.237821
 H    5.288452   -0.220213    0.065499
 H    3.507394    1.222159   -1.965509
 H    4.357233   -0.311678   -2.225602
 H    5.274121    1.191849   -1.978725
 H   -2.120318   -1.220726   -3.115227
 H   -5.161221   -0.977586   -4.924936
 H   -4.164109    0.407079   -4.400760
 H   -3.384286   -1.050759   -5.084385
 H   -3.815233   -1.749732   -0.646734
 H   -2.389412   -3.760107   -2.478781
 H   -4.140808   -3.553034   -2.315879
 H   -3.190231   -4.168875   -0.950305
 H   -1.126204   -2.885505   -0.475941
 H   -0.986244   -1.208471   -0.936035
 H   -2.502931   -2.324099    1.466374
 H   -4.142945   -0.898736    2.298642
 H   -2.739846   -0.118879    3.086812
 H   -3.856271    0.846956    2.082849
 H    0.007069   -2.392769    1.532847
 H   -2.062597   -3.127765    3.393504
 H   -0.309666   -3.468046    3.513194
 H   -1.147469   -2.602424    4.828780
 H    0.517436   -0.261237    0.408172
 H    0.635708    1.834118    1.825312
 H   -0.353830    1.024650    3.052705
 H   -1.040653    1.375248    1.449717
 H    1.588201   -0.721584    3.259399
 H    3.753599   -1.260914    3.591898
 H    4.355133   -2.246162    2.241596
 H    4.925714   -0.592769    2.441075
 H    2.335021   -0.338979   -0.378579
 H    2.631160   -4.755636   -1.009761
 H    4.240756   -4.149023   -0.842512
