47 
2vx9_ligand_ani-2x.xyz
 N   -0.239172    3.163558    0.473764
 C   -0.491810    4.314437    1.162428
 O    0.300118    5.225363    1.293355
 N   -1.773159    4.420823    1.735543
 C   -2.789337    3.476777    1.790920
 O   -3.841718    3.713813    2.340592
 C   -2.407799    2.202885    1.118427
 N   -3.217900    1.179403    1.153344
 C   -2.809229    0.025473    0.557611
 C   -3.643594   -1.111071    0.633557
 C   -3.265501   -2.321901    0.108892
 C   -4.185983   -3.514759    0.206490
 C   -1.992458   -2.440656   -0.514031
 C   -1.539648   -3.762363   -1.071377
 C   -1.168834   -1.331327   -0.615540
 C   -1.576814   -0.081662   -0.123093
 N   -0.804661    1.068999   -0.266534
 C   -1.132224    2.182717    0.456544
 C    0.365437    1.122962   -1.147916
 C    1.707215    0.904831   -0.409280
 O    2.268070    2.123574    0.025715
 C    2.737027    0.223336   -1.302794
 O    2.314379   -1.110798   -1.525598
 C    4.144737    0.217880   -0.701103
 O    4.926210   -0.588510   -1.570091
 C    4.181161   -0.384147    0.700369
 O    5.551279   -0.650093    0.984255
 H   -1.945862    5.296638    2.208733
 H   -4.595260   -0.978914    1.143053
 H   -3.715688   -4.339780    0.752117
 H   -4.457213   -3.894334   -0.784595
 H   -5.109753   -3.251375    0.728350
 H   -1.474491   -4.530195   -0.291733
 H   -2.230607   -4.137575   -1.834904
 H   -0.552102   -3.666901   -1.532007
 H   -0.178651   -1.452088   -1.051572
 H    0.390087    2.106818   -1.625018
 H    0.219091    0.377283   -1.929806
 H    1.492245    0.241026    0.446512
 H    1.521111    2.689422    0.326349
 H    2.789949    0.770162   -2.258953
 H    3.086955   -1.551597   -1.912888
 H    4.532971    1.245510   -0.665800
 H    5.673371   -0.890960   -1.028895
 H    3.590321   -1.311759    0.692882
 H    3.752412    0.313327    1.433411
 H    5.595524   -1.304054    1.690317
