47 
2vxa_ligand_xtb.xyz
 N   -0.278477    3.223106    0.455064
 C   -0.584798    4.374016    1.112508
 O    0.161866    5.318193    1.175727
 N   -1.843620    4.437042    1.740337
 C   -2.798885    3.456529    1.822217
 O   -3.846993    3.618061    2.398654
 C   -2.388044    2.203421    1.136098
 N   -3.163736    1.167545    1.167573
 C   -2.749273    0.031515    0.571555
 C   -3.551349   -1.116048    0.673555
 C   -3.167975   -2.310014    0.114196
 C   -4.037969   -3.520505    0.233015
 C   -1.927052   -2.384058   -0.561110
 C   -1.462623   -3.681892   -1.136054
 C   -1.132387   -1.262143   -0.688885
 C   -1.526392   -0.034937   -0.150913
 N   -0.785210    1.113429   -0.269403
 C   -1.116749    2.221125    0.449855
 C    0.376015    1.192096   -1.131775
 C    1.694021    0.929601   -0.374280
 O    2.308016    2.106843    0.056151
 C    2.662067    0.177646   -1.299862
 O    2.126034   -1.099422   -1.556808
 C    4.078663    0.050807   -0.716855
 O    4.771149   -0.829763   -1.578042
 C    4.091722   -0.503829    0.711885
 O    5.433727   -0.845323    1.007234
 H   -2.055330    5.317067    2.198733
 H   -4.476073   -1.020618    1.220114
 H   -3.520293   -4.313931    0.770524
 H   -4.297274   -3.903795   -0.752790
 H   -4.953895   -3.281595    0.765428
 H   -1.410700   -4.445825   -0.361690
 H   -2.161118   -4.032332   -1.894962
 H   -0.480771   -3.573173   -1.587669
 H   -0.174112   -1.359440   -1.174288
 H    0.415257    2.204929   -1.541059
 H    0.259980    0.474325   -1.941533
 H    1.467756    0.270241    0.482857
 H    1.613604    2.750059    0.299737
 H    2.753605    0.738299   -2.243420
 H    2.871678   -1.622736   -1.889559
 H    4.554098    1.039389   -0.714809
 H    5.572651   -1.091683   -1.106254
 H    3.452936   -1.397023    0.769339
 H    3.718509    0.263224    1.395888
 H    5.507940   -1.048224    1.943776
