54 
2w0j_ligand_xtb.xyz
 N   41.373251  -28.379981   -0.627236
 C   40.911113  -28.511592    0.549131
 N   40.482948  -27.541007    1.418587
 N   40.878118  -29.789594    1.063312
 N   40.357725  -30.033205    2.267025
 C   40.300897  -31.209121    2.771568
 C   40.825087  -32.449211    2.095236
 C   39.677230  -31.314403    4.090375
 C   39.666688  -30.212971    4.949559
 C   39.080974  -30.289908    6.192654
 C   39.066011  -32.489307    4.527352
 C   38.471815  -32.573005    5.770645
 C   38.477441  -31.472876    6.622256
 N   37.905857  -31.483681    7.896745
 C   37.268450  -32.521848    8.541002
 O   37.106231  -33.622046    8.067707
 N   36.840095  -32.143081    9.794883
 C   36.157516  -32.904864   10.746159
 C   35.805152  -34.236655   10.551959
 C   35.121947  -34.922743   11.536017
 C   35.818912  -32.285849   11.950491
 C   35.142282  -32.978314   12.928710
 C   34.773170  -34.312396   12.740505
 C   34.058963  -35.030956   13.795425
 C   33.179281  -36.199986   13.435451
 N   34.238481  -34.603903   14.989571
 N   33.669734  -35.174951   16.052376
 C   33.895974  -34.693597   17.323553
 N   33.358787  -35.332905   18.281394
 N   34.637371  -33.540511   17.367919
 H   41.392123  -27.422870   -0.960362
 H   39.971855  -27.885139    2.217386
 H   40.191174  -26.660123    1.031694
 H   41.250739  -30.513381    0.457178
 H   40.126654  -32.797551    1.332874
 H   41.779605  -32.238678    1.611745
 H   40.980926  -33.243413    2.818429
 H   40.140328  -29.299227    4.627204
 H   39.027083  -33.352853    3.881342
 H   39.092020  -29.427438    6.846114
 H   38.000539  -33.487377    6.087928
 H   37.988881  -30.604203    8.387298
 H   37.026120  -31.194865   10.090326
 H   36.069909  -34.726841    9.630837
 H   36.087303  -31.250248   12.113239
 H   34.880985  -35.960548   11.364412
 H   34.874545  -32.491631   13.853177
 H   32.912955  -36.169764   12.383701
 H   33.686028  -37.143246   13.644720
 H   32.258720  -36.171260   14.019388
 H   33.069799  -35.991617   15.995520
 H   33.539347  -34.936809   19.196761
 H   35.129996  -33.321937   16.515127
 H   35.092865  -33.308517   18.233633
