20 
2w1d_ligand_xtb.xyz
 C    4.901927   30.289039    8.653563
 C    4.735634   30.595852    7.345390
 C    3.905189   31.778616    7.370248
 N    3.651415   32.072234    8.711630
 N    4.218647   31.227979    9.430750
 C    3.434727   32.512233    6.311180
 N    3.732767   32.165109    5.001421
 C    3.123120   33.071265    4.285002
 C    3.044705   33.262934    2.883883
 C    2.320475   34.319303    2.436467
 C    1.646134   35.227424    3.322035
 C    1.683880   35.095551    4.671615
 C    2.425102   34.011070    5.202076
 N    2.641331   33.634158    6.433125
 H    5.440835   29.495312    9.130992
 H    5.103502   30.115320    6.463961
 H    3.550748   32.580837    2.219489
 H    2.234503   34.502834    1.375373
 H    1.092951   36.040060    2.874316
 H    1.178806   35.774870    5.339183
