17 
2w2i_ligand_aiqm1.xyz
 O   11.172267   35.072497   86.104521
 C   10.664960   36.322238   86.158837
 O   10.572917   36.992434   85.171855
 C   10.224426   36.803529   87.518551
 C   10.736990   36.295216   88.709542
 C   10.279912   36.817973   89.917172
 C    9.279321   37.822904   87.584910
 C    8.878709   38.268481   88.836759
 N    9.360372   37.781705   89.984024
 C    7.846848   39.363456   88.972472
 O    7.320436   39.882344   88.026602
 O    7.575939   39.694398   90.235979
 H   11.066047   34.633461   86.953711
 H   11.508474   35.534853   88.723450
 H   10.668136   36.448799   90.858123
 H    8.871431   38.264243   86.688140
 H    8.129714   39.128568   90.797852
