17 
2w2i_ligand_ani-2x.xyz
 O   11.056603   35.039924   86.111563
 C   10.699807   36.339214   86.173406
 O   10.753181   37.041163   85.200612
 C   10.244641   36.819820   87.522952
 C   10.782869   36.327598   88.711651
 C   10.323926   36.845658   89.918648
 C    9.286230   37.822670   87.587287
 C    8.885939   38.258552   88.839725
 N    9.384147   37.788571   89.986468
 C    7.830636   39.331441   88.963000
 O    7.303126   39.843295   88.009295
 O    7.539816   39.656709   90.223745
 H   10.814691   34.591422   86.933581
 H   11.572812   35.581227   88.709461
 H   10.718655   36.481088   90.863999
 H    8.855061   38.259734   86.692517
 H    8.104760   39.099014   90.794592
