40 
2w47_ligand_ani-2x.xyz
 C    1.375426   -0.642576   -0.686148
 C    2.677907   -1.024290    0.002581
 C    3.270548    0.214275    0.671045
 C    3.322790    1.311340   -0.341979
 C    2.504719    1.292252   -1.397303
 C    2.508847    2.408046   -2.384935
 O    0.503938   -0.121166    0.284378
 O    2.535527   -2.062797    0.939241
 O    4.548295   -0.087712    1.178617
 O    1.622458    0.295629   -1.709228
 O    1.610360    2.249782   -3.362944
 C   -3.623282   -0.289952    0.699108
 C   -2.977486    1.095829    0.595420
 C   -1.488348    0.997553    0.874237
 C   -0.869838   -0.041194   -0.065127
 C   -1.579564   -1.405308    0.113998
 C   -1.260489   -2.119875    1.439812
 O   -4.924546   -0.174173    0.199109
 O   -3.124169    1.613502   -0.705336
 O   -1.325933    0.589283    2.217166
 O   -2.965414   -1.266120   -0.098814
 O   -0.162210   -2.196791    1.944363
 O   -2.316846   -2.738271    1.972462
 O    3.250598    3.361729   -2.305029
 H    0.926927   -1.524050   -1.164488
 H    3.384608   -1.370028   -0.760912
 H    2.603787    0.516803    1.499295
 H    4.010698    2.136520   -0.209350
 H    1.678588   -1.962627    1.388589
 H    4.431791   -0.910249    1.676607
 H    1.708133    3.030656   -3.934031
 H   -3.622129   -0.611283    1.751826
 H   -3.439546    1.750708    1.350765
 H   -1.023524    1.977107    0.689205
 H   -1.004666    0.286255   -1.103381
 H   -1.230090   -2.091473   -0.669650
 H   -5.111951   -1.024646   -0.220734
 H   -4.029100    1.398283   -0.976445
 H   -0.401911    0.305601    2.291862
 H   -1.994800   -3.166574    2.783648
