40 
2w47_ligand_aiqm1.xyz
 C    1.327852   -0.514195   -0.843204
 C    2.583319   -1.108124   -0.222044
 C    3.337529   -0.045617    0.565414
 C    3.427373    1.205573   -0.258432
 C    2.592700    1.430576   -1.282189
 C    2.666029    2.683321   -2.070756
 O    0.479495   -0.082703    0.206737
 O    2.303045   -2.245289    0.555812
 O    4.645611   -0.488547    0.880708
 O    1.619256    0.555360   -1.705958
 O    1.770251    2.731987   -3.066612
 C   -3.661396   -0.406726    0.670751
 C   -3.086138    0.966426    0.336415
 C   -1.602581    1.010189    0.651972
 C   -0.912195   -0.136587   -0.076545
 C   -1.537435   -1.492618    0.333021
 C   -1.178987   -1.955909    1.750369
 O   -4.946034   -0.466734    0.135090
 O   -3.215543    1.261574   -1.039366
 O   -1.465215    0.875720    2.059176
 O   -2.920885   -1.474078    0.066858
 O   -0.045898   -2.170787    2.109736
 O   -2.225329   -2.163420    2.555213
 O    3.450673    3.569900   -1.835498
 H    0.819007   -1.248487   -1.469678
 H    3.212742   -1.444310   -1.046425
 H    2.789946    0.169916    1.492971
 H    4.180759    1.940431   -0.011617
 H    1.540060   -2.089324    1.132051
 H    4.546631   -1.352137    1.292199
 H    1.917178    3.581992   -3.500963
 H   -3.675536   -0.541536    1.757285
 H   -3.607177    1.708051    0.947996
 H   -1.184839    1.956094    0.304777
 H   -1.100731   -0.015682   -1.145611
 H   -1.129960   -2.277299   -0.310735
 H   -5.234503   -1.380082    0.190615
 H   -4.083025    0.947163   -1.306704
 H   -0.532798    0.968076    2.264593
 H   -1.863150   -2.462158    3.400076
