31 
2w6q_ligand_dft.xyz
 N   -4.726661   -0.716753    0.344042
 C   -3.414450   -0.502701    0.094552
 N   -2.627866   -1.586093    0.020882
 C   -1.341833   -1.298436   -0.201816
 N   -0.475504   -2.326700   -0.315213
 N   -0.826391   -0.063840   -0.341514
 N   -3.029656    0.777060   -0.033473
 C   -1.726303    0.906620   -0.247179
 O   -1.311053    2.172632   -0.377181
 C    0.083061    2.374159   -0.600174
 C    0.870369    2.287558    0.712230
 O    2.232023    1.969321    0.454267
 C    2.503218    0.636988    0.273463
 C    2.332173   -0.280717    1.309849
 C    2.650672   -1.618764    1.104600
 C    3.142454   -2.046931   -0.128886
 C    3.320215   -1.121735   -1.155530
 C    3.002591    0.218414   -0.956939
 H   -5.078107   -1.657678    0.283297
 H   -5.359885    0.060085    0.250942
 H   -0.796786   -3.248937   -0.072316
 H    0.514229   -2.125144   -0.319150
 H    0.157649    3.368042   -1.044458
 H    0.464491    1.629210   -1.301842
 H    0.409696    1.536707    1.362193
 H    0.875796    3.245467    1.236792
 H    1.959077    0.057151    2.271551
 H    2.521362   -2.329661    1.915650
 H    3.397058   -3.091123   -0.283525
 H    3.705679   -1.444409   -2.118051
 H    3.131528    0.952223   -1.745855
