71 
2w7y_ligand_dft.xyz
 C    1.635625    1.086338    0.499830
 C    3.020037    1.060092   -0.135017
 C    3.948098    0.114435    0.701770
 C    3.388970   -0.161207    2.099938
 C    1.982904   -0.756431    1.986307
 C    1.052516   -0.553407    3.178533
 C    4.004734    0.513301   -2.298949
 C    3.752883    0.069303   -3.721365
 O    1.289357   -0.245608    0.837055
 O    5.217120    0.679932    0.889586
 O    3.365380    1.035821    2.852704
 O   -0.226777   -1.071116    2.878810
 O    5.130687    0.792212   -1.886462
 N    2.910670    0.611814   -1.509276
 C   -3.051713    1.189621   -0.084928
 C   -1.618083    0.852407   -0.532889
 C   -0.615088    1.757913    0.164954
 C   -0.989323    3.230425   -0.013956
 C   -2.456218    3.427283    0.368065
 C   -2.986902    4.823111    0.070739
 O   -4.008624    0.496248   -0.801272
 O   -1.280872   -0.483476   -0.209977
 O    0.686470    1.553014   -0.395108
 O   -0.794886    3.624531   -1.350690
 O   -3.300768    2.541578   -0.345584
 O   -4.320765    4.946907    0.498941
 C   -1.582141   -1.473548   -1.162166
 C   -0.453048   -2.502667   -1.149923
 C   -0.467199   -3.316353    0.139439
 C   -1.848186   -3.931413    0.351023
 C   -2.911221   -2.834341    0.305528
 C   -4.326722   -3.371402    0.372224
 O    0.810919   -1.908814   -1.359160
 O    0.474977   -4.370260    0.052648
 O   -2.110504   -4.891419   -0.644583
 O   -2.826483   -2.069817   -0.912647
 H    1.658748    1.697516    1.409992
 H    3.454183    2.065691   -0.108108
 H    4.005705   -0.842796    0.162400
 H    4.039699   -0.899029    2.590103
 H    2.074845   -1.829190    1.786304
 H    1.430448   -1.088808    4.053338
 H    1.005532    0.513741    3.434289
 H    4.630441   -0.468610   -4.082448
 H    2.868941   -0.569327   -3.803956
 H    3.609240    0.950331   -4.355507
 H    5.538411    0.876391   -0.011923
 H    4.232561    1.443717    2.705100
 H   -0.460943   -0.743775    1.995127
 H    2.000388    0.353318   -1.863832
 H   -3.134133    0.994980    1.005472
 H   -1.562118    1.019197   -1.615479
 H   -0.600452    1.511450    1.234912
 H   -0.368992    3.836154    0.667994
 H   -2.556333    3.236490    1.450538
 H   -2.876906    5.019916   -1.003463
 H   -2.399445    5.565545    0.619069
 H   -3.797008   -0.455527   -0.781369
 H    0.102452    3.353554   -1.588025
 H   -4.804384    4.227202    0.070737
 H   -1.668604   -1.016998   -2.153298
 H   -0.627176   -3.186969   -1.984727
 H   -0.235878   -2.667493    0.996091
 H   -1.883629   -4.386464    1.354092
 H   -2.720680   -2.159340    1.152088
 H   -4.470902   -3.931415    1.300915
 H   -5.046009   -2.547644    0.347650
 H   -4.512953   -4.037495   -0.472720
 H    0.958906   -1.305679   -0.603666
 H    1.233868   -4.009752   -0.428189
 H   -1.295482   -5.409495   -0.719305
