71 
2w7y_ligand_aiqm1.xyz
 C    1.614514    1.063411    0.522600
 C    2.998826    1.029709   -0.127923
 C    3.972673    0.200295    0.756464
 C    3.467230    0.082541    2.185793
 C    2.095287   -0.590163    2.194177
 C    1.249372   -0.306092    3.422261
 C    3.993433    0.457590   -2.278915
 C    3.754751   -0.111871   -3.655180
 O    1.314138   -0.236311    1.027652
 O    5.239898    0.815225    0.817147
 O    3.375480    1.372512    2.781383
 O   -0.003863   -0.959907    3.309906
 O    5.082110    0.905923   -1.923314
 N    2.919478    0.461846   -1.461348
 C   -3.103262    1.255415    0.059903
 C   -1.721464    0.815335   -0.452141
 C   -0.633641    1.679363    0.172209
 C   -0.939355    3.160302   -0.069111
 C   -2.368895    3.464102    0.380969
 C   -2.817210    4.869910    0.054169
 O   -4.139518    0.572071   -0.563480
 O   -1.483657   -0.546408   -0.098799
 O    0.637730    1.369260   -0.423690
 O   -0.810756    3.500260   -1.435354
 O   -3.308372    2.603399   -0.258508
 O   -4.089771    5.130738    0.612894
 C   -1.697542   -1.481195   -1.153001
 C   -0.523829   -2.459618   -1.178881
 C   -0.562863   -3.390289    0.020363
 C   -1.912777   -4.087655    0.068921
 C   -3.020843   -3.039040    0.122210
 C   -4.406842   -3.626828    0.057672
 O    0.724238   -1.787030   -1.263874
 O    0.445404   -4.389488   -0.104551
 O   -2.090026   -4.908748   -1.071145
 O   -2.931770   -2.109970   -0.980878
 H    1.586067    1.794024    1.338502
 H    3.388957    2.045765   -0.187819
 H    4.042256   -0.809588    0.335515
 H    4.166575   -0.535035    2.757216
 H    2.240917   -1.667976    2.105961
 H    1.742995   -0.695996    4.310322
 H    1.122330    0.775637    3.539955
 H    4.696170   -0.474612   -4.057613
 H    3.019049   -0.915274   -3.637945
 H    3.383011    0.680659   -4.305425
 H    5.504242    0.954877   -0.104173
 H    4.214993    1.800820    2.596852
 H   -0.353572   -0.716968    2.444135
 H    2.050489    0.050950   -1.768814
 H   -3.144433    1.107424    1.156165
 H   -1.704535    0.943356   -1.538986
 H   -0.602732    1.501055    1.249184
 H   -0.237743    3.751700    0.537455
 H   -2.407680    3.306785    1.470202
 H   -2.813196    5.004024   -1.030543
 H   -2.125839    5.582966    0.502267
 H   -3.901103   -0.364380   -0.594491
 H    0.002108    3.097282   -1.753533
 H   -4.707978    4.514934    0.212666
 H   -1.764689   -0.948674   -2.102206
 H   -0.617825   -3.050299   -2.089648
 H   -0.405817   -2.822711    0.943709
 H   -1.962417   -4.690829    0.981645
 H   -2.884536   -2.486357    1.059629
 H   -4.556925   -4.329318    0.877856
 H   -5.149295   -2.834064    0.139820
 H   -4.546447   -4.150564   -0.886480
 H    0.806822   -1.223597   -0.475333
 H    1.218380   -3.947550   -0.467964
 H   -1.298739   -5.452671   -1.130346
