71 
2w7y_ligand_xtb.xyz
 C    1.686375    1.148558    0.562672
 C    3.004915    1.037881   -0.210842
 C    4.038388    0.244895    0.642982
 C    3.627053    0.209297    2.124806
 C    2.236321   -0.425255    2.256856
 C    1.508947   -0.039763    3.552407
 C    3.799282    0.217562   -2.361149
 C    3.404913   -0.521724   -3.613444
 O    1.388967   -0.103414    1.151053
 O    5.303967    0.833689    0.572918
 O    3.637781    1.506866    2.667169
 O    0.256916   -0.669206    3.611140
 O    4.920635    0.646051   -2.148601
 N    2.785966    0.390505   -1.485132
 C   -2.999779    1.034227    0.431227
 C   -1.645377    0.744704   -0.257597
 C   -0.604855    1.712640    0.319218
 C   -1.064146    3.154639    0.038537
 C   -2.490549    3.344834    0.580995
 C   -3.087391    4.691315    0.149568
 O   -4.005776    0.179596    0.063425
 O   -1.201461   -0.581561   -0.078006
 O    0.659961    1.493488   -0.305775
 O   -1.041048    3.411428   -1.338784
 O   -3.375501    2.353820    0.102487
 O   -4.343101    4.898359    0.727395
 C   -1.311078   -1.419858   -1.208933
 C   -0.270079   -2.538043   -1.037914
 C   -0.685321   -3.418797    0.143325
 C   -2.099145   -3.955908   -0.126549
 C   -3.062104   -2.783722   -0.371722
 C   -4.437156   -3.271767   -0.797138
 O    1.024603   -2.021293   -0.878868
 O    0.188097   -4.517578    0.278747
 O   -2.084161   -4.815632   -1.236248
 O   -2.591382   -1.913128   -1.402863
 H    1.793732    1.904588    1.359225
 H    3.409457    2.041878   -0.392131
 H    4.062620   -0.791655    0.268735
 H    4.349473   -0.418253    2.667493
 H    2.334672   -1.516007    2.218312
 H    2.082185   -0.372273    4.418360
 H    1.405009    1.052485    3.598679
 H    4.290649   -0.726673   -4.207336
 H    2.908983   -1.453907   -3.354353
 H    2.718278    0.087832   -4.196767
 H    5.533506    0.890946   -0.376821
 H    4.489163    1.893980    2.416981
 H   -0.149680   -0.601398    2.735926
 H    1.915194   -0.104101   -1.611238
 H   -2.891571    0.929336    1.524418
 H   -1.764147    0.962356   -1.328785
 H   -0.520455    1.546455    1.397725
 H   -0.392017    3.854176    0.563694
 H   -2.449566    3.292063    1.682007
 H   -3.141123    4.700547   -0.945504
 H   -2.444436    5.505704    0.487202
 H   -4.063468    0.128863   -0.900616
 H   -0.197237    3.085226   -1.679599
 H   -4.885299    4.126197    0.522378
 H   -1.082247   -0.844860   -2.121588
 H   -0.259907   -3.144891   -1.950185
 H   -0.684546   -2.811962    1.062337
 H   -2.441564   -4.502198    0.767261
 H   -3.133864   -2.207927    0.561888
 H   -4.851844   -3.912612   -0.025621
 H   -5.093069   -2.421068   -0.951102
 H   -4.342742   -3.833638   -1.720836
 H    1.005180   -1.395824   -0.128202
 H    1.084356   -4.198150    0.112941
 H   -1.349187   -5.428543   -1.097906
