67 
2w8y_ligand_xtb.xyz
 O   -2.170727   -6.071805   -1.285815
 C   -1.611441   -5.020607   -1.040689
 C   -1.611374   -3.854181   -2.005771
 C   -0.833757   -4.795146    0.164828
 C   -0.254329   -3.618078    0.481328
 C    0.620478   -3.506251    1.691184
 C   -0.468809   -2.411065   -0.298457
 C   -1.617210   -2.517846   -1.270948
 C    0.241845   -1.281026   -0.085503
 C   -0.085986   -0.015277   -0.844869
 C   -1.343080    0.638634   -0.292729
 C   -1.932703    0.279589    0.910988
 C   -3.075460    0.902362    1.372992
 C   -3.698868    1.919308    0.640217
 N   -4.859974    2.518399    1.076021
 C   -5.328545    2.267158    2.417032
 C   -5.331341    3.711826    0.415687
 C   -3.108434    2.268759   -0.581802
 C   -1.968423    1.636919   -1.030399
 C    1.070676    1.000675   -1.006325
 C    1.974361    1.087728    0.214017
 C    1.252383    1.790561    1.363143
 C    3.336468    1.795401   -0.027715
 C    3.922637    1.407190   -1.307649
 C    4.467251    1.180636   -2.352262
 C    5.096813    0.856225   -3.613321
 O    3.191368    3.203102    0.030340
 C    4.225027    1.235328    1.121352
 C    3.610393   -0.115664    1.528883
 C    2.457517   -0.327574    0.541582
 C    1.309789   -1.223997    0.985995
 C    1.809475   -2.618396    1.355576
 H   -2.468812   -3.936651   -2.675455
 H   -0.703231   -3.938891   -2.611393
 H   -0.703182   -5.654377    0.808617
 H    0.049689   -3.051927    2.507894
 H    0.945283   -4.494677    2.019357
 H   -2.548029   -2.426886   -0.700609
 H   -1.613687   -1.710650   -2.001065
 H   -0.334336   -0.303837   -1.873467
 H   -1.502588   -0.508217    1.512187
 H   -3.479071    0.580835    2.318937
 H   -6.252829    2.815521    2.584771
 H   -4.600586    2.575018    3.178227
 H   -5.543776    1.204814    2.549083
 H   -4.583695    4.514410    0.425347
 H   -6.226943    4.072118    0.916614
 H   -5.595055    3.493009   -0.621495
 H   -3.541510    3.037263   -1.200398
 H   -1.556229    1.930849   -1.985909
 H    1.678875    0.696183   -1.862002
 H    0.653746    1.983441   -1.229083
 H    1.801988    1.702336    2.295343
 H    0.253750    1.389429    1.499025
 H    1.163178    2.846521    1.121163
 H    4.700390    1.494826   -4.402386
 H    4.902086   -0.184856   -3.870093
 H    6.173991    1.006748   -3.543435
 H    4.018763    3.604448   -0.254407
 H    5.257844    1.126433    0.788544
 H    4.207942    1.948347    1.945868
 H    4.341935   -0.920388    1.467647
 H    3.236662   -0.080023    2.552721
 H    2.877699   -0.749164   -0.380372
 H    0.857220   -0.780691    1.883253
 H    2.357480   -3.047404    0.513378
 H    2.488719   -2.556597    2.206880
