39 
2w9h_ligand_xtb.xyz
 C    7.254700   -4.138999   15.116241
 N    6.077348   -3.738160   14.653502
 C    6.103788   -2.814133   13.696656
 N    4.915279   -2.442433   13.158784
 N    7.198359   -2.239117   13.198467
 C    8.369904   -2.653290   13.667691
 N    9.476221   -2.094016   13.097817
 C    8.463222   -3.651702   14.660673
 C    9.805796   -4.118643   15.169120
 C    9.698194   -5.315668   16.070744
 C    9.746895   -5.172201   17.448720
 C    9.608848   -6.279533   18.271899
 O    9.628884   -6.239628   19.634268
 C    9.809763   -4.997195   20.263019
 C    9.425946   -7.560969   17.719631
 O    9.337084   -8.574012   18.634596
 C    8.548120   -9.705120   18.342114
 C    9.396726   -7.701793   16.325420
 O    9.255809   -8.969400   15.818695
 C    9.120696   -9.126513   14.428658
 C    9.523085   -6.574367   15.521261
 H    7.214725   -4.890854   15.893865
 H    4.085589   -2.708086   13.658331
 H    4.901833   -1.612390   12.593911
 H    9.297793   -1.294194   12.513376
 H   10.337865   -2.097777   13.614554
 H   10.290134   -3.297248   15.709301
 H   10.432515   -4.369782   14.307114
 H    9.878582   -4.188528   17.869840
 H   10.772843   -4.546263   19.999879
 H    9.002993   -4.297229   20.018923
 H    9.792305   -5.204985   21.331868
 H    7.582420   -9.422128   17.914675
 H    9.055151  -10.389994   17.658550
 H    8.387878  -10.199217   19.300662
 H    8.260720   -8.571803   14.039858
 H   10.026052   -8.816465   13.896545
 H    8.961945  -10.192723   14.271436
 H    9.490587   -6.666241   14.447935
