39 
2w9h_ligand_aiqm1.xyz
 C    7.269514   -4.304519   15.006180
 N    6.057794   -3.840496   14.668526
 C    6.066732   -2.751341   13.900062
 N    4.849317   -2.298997   13.461715
 N    7.138783   -2.073925   13.471191
 C    8.322380   -2.557890   13.837497
 N    9.421866   -1.821347   13.455842
 C    8.461815   -3.722827   14.621065
 C    9.829846   -4.248739   15.002027
 C    9.781439   -5.454588   15.900823
 C    9.725851   -5.287053   17.285707
 C    9.623730   -6.401414   18.121699
 O    9.517453   -6.339391   19.471602
 C    9.536185   -5.051359   20.062218
 C    9.601846   -7.692282   17.579503
 O    9.538728   -8.783002   18.398171
 C    8.196604   -9.176041   18.675881
 C    9.646497   -7.853238   16.189218
 O    9.562019   -9.133830   15.752678
 C    9.603755   -9.343719   14.352072
 C    9.748000   -6.738428   15.352985
 H    7.280061   -5.194202   15.626482
 H    4.067516   -2.610403   14.011139
 H    4.832254   -1.337210   13.170180
 H    9.222725   -1.159176   12.722529
 H   10.290049   -2.317834   13.349555
 H   10.392698   -3.447863   15.491296
 H   10.380944   -4.496776   14.086121
 H    9.742316   -4.288059   17.693473
 H   10.475090   -4.533287   19.855784
 H    8.701851   -4.440369   19.708898
 H    9.439557   -5.214310   21.130714
 H    7.656970   -8.367895   19.178137
 H    7.676345   -9.442456   17.751269
 H    8.258747  -10.042840   19.329497
 H    8.769881   -8.846329   13.850643
 H   10.544418   -8.989298   13.924956
 H    9.523573  -10.416662   14.211124
 H    9.781446   -6.853404   14.280143
