18 
2wa3_ligand_dft.xyz
 C   -2.568016    0.270254   -0.000099
 O   -2.615873    1.472586   -0.000326
 O   -3.645907   -0.503703   -0.000021
 C   -1.268727   -0.592257    0.000094
 C    0.083958    0.003564    0.000028
 C    1.156061   -0.895841   -0.000086
 C    2.461672   -0.420926   -0.000071
 C    2.697552    0.956196    0.000100
 C    1.628566    1.845604    0.000187
 C    0.317611    1.386084    0.000149
 O    3.461149   -1.339460   -0.000104
 O   -1.455548   -1.799444    0.000261
 H   -3.318807   -1.426893    0.000264
 H    0.972329   -1.964112   -0.000177
 H    3.718427    1.332661    0.000174
 H    1.824009    2.913100    0.000303
 H   -0.512744    2.078462    0.000181
 H    4.314161   -0.889119   -0.001036
