18 
2wa4_ligand_xtb.xyz
 C   17.142913   25.888549   29.055686
 O   16.220307   26.633533   29.711856
 C   18.470162   26.301708   29.093597
 C   19.447170   25.577182   28.425377
 C   20.841227   26.074275   28.509450
 O   21.285874   26.749393   29.425206
 N   21.660895   25.697060   27.499500
 C   19.104286   24.418254   27.731141
 C   17.785252   24.006421   27.704821
 C   16.804389   24.736372   28.353793
 O   22.950107   26.238938   27.503620
 H   15.345008   26.237119   29.621531
 H   18.739396   27.187855   29.645540
 H   21.373659   25.405219   26.580546
 H   19.861681   23.824915   27.243157
 H   17.513464   23.105827   27.174994
 H   15.773899   24.407819   28.323951
 H   22.971113   26.726962   28.356536
