50 
2wbg_ligand_dft.xyz
 O   -4.833430   -0.193585    1.803607
 C   -3.645676   -0.524710    1.128805
 C   -2.878383    0.753371    0.839555
 C   -2.226759    1.483230    2.009346
 O   -1.074533    2.107002    1.413716
 C   -3.934634   -1.210390   -0.205592
 O   -4.631216   -2.402353    0.085519
 C   -2.651262   -1.487561   -0.977964
 O   -3.025764   -2.101012   -2.191238
 C   -1.853655   -0.206806   -1.223121
 O   -0.638534   -0.570571   -1.788150
 N   -1.685188    0.436384    0.073926
 C   -0.771147    1.450845    0.266142
 N    0.192419    1.713499   -0.516446
 C    1.132563    2.760291   -0.143887
 C    2.248406    2.867008   -1.182000
 C    3.003407    1.558696   -1.432540
 C    3.649219    0.950544   -0.187232
 C    4.481847   -0.291929   -0.503274
 C    5.116438   -0.928592    0.732618
 C    5.941693   -2.175593    0.412948
 C    6.574795   -2.804590    1.652731
 H   -5.388581   -0.985322    1.779364
 H   -3.014956   -1.194514    1.735122
 H   -3.542506    1.439043    0.285329
 H   -1.893733    0.783524    2.783482
 H   -2.848442    2.261507    2.449098
 H   -4.567053   -0.536961   -0.808370
 H   -4.721602   -2.880964   -0.749735
 H   -2.009827   -2.151651   -0.379795
 H   -2.210562   -2.270679   -2.682115
 H   -2.424245    0.463499   -1.895207
 H   -0.059513    0.219341   -1.712845
 H    1.560792    2.555565    0.847145
 H    0.619381    3.728454   -0.061542
 H    1.816725    3.217139   -2.127831
 H    2.952596    3.640782   -0.848175
 H    2.315850    0.823803   -1.869219
 H    3.779373    1.741740   -2.187973
 H    4.284589    1.701572    0.304854
 H    2.870085    0.679374    0.537301
 H    5.270716   -0.028080   -1.222115
 H    3.844634   -1.032778   -1.006670
 H    5.756085   -0.189609    1.236337
 H    4.328041   -1.191170    1.452453
 H    6.726942   -1.913340   -0.308562
 H    5.300196   -2.913350   -0.087243
 H    5.807861   -3.100086    2.378047
 H    7.247505   -2.097584    2.151955
 H    7.155740   -3.697164    1.397708
