50 
2wca_ligand_ani-2x.xyz
 C   -5.237935    4.182227    1.191262
 C   -5.140277    2.711904    0.798322
 C   -3.693854    2.239788    0.698483
 C   -3.585397    0.779104    0.298547
 O   -4.576046    0.092038    0.041445
 N   -2.327921    0.286113    0.246823
 C   -1.986234   -1.016976   -0.313136
 C   -2.401228   -2.191622    0.596776
 O   -3.782524   -2.436832    0.609516
 C   -1.773239   -3.489149    0.103533
 O   -2.032775   -4.529106    1.014416
 C   -0.275158   -3.339725   -0.039493
 C    0.412021   -4.548119   -0.662265
 O    1.786133   -4.296456   -0.823542
 O    0.017001   -2.234136   -0.926486
 C   -0.491865   -1.049219   -0.543955
 N    0.200245    0.012917   -0.386195
 O    1.538105   -0.255728   -0.708484
 C    2.352642    0.820560   -0.457318
 O    1.979751    1.872124   -0.013119
 N    3.619578    0.435805   -0.811599
 C    4.809187    1.179754   -0.744915
 C    5.988734    0.561867   -1.173057
 C    7.194277    1.250519   -1.128902
 C    7.235821    2.560186   -0.658092
 C    6.058606    3.169136   -0.233566
 C    4.843836    2.493145   -0.271514
 H   -6.280643    4.508365    1.261502
 H   -4.736553    4.820407    0.453997
 H   -4.764791    4.361424    2.164031
 H   -5.665933    2.084341    1.525788
 H   -5.634870    2.536089   -0.162513
 H   -3.172106    2.377834    1.656731
 H   -3.138267    2.842262   -0.035884
 H   -1.532023    0.904229    0.370741
 H   -2.500661   -1.163417   -1.275672
 H   -2.030947   -1.979730    1.614928
 H   -4.256035   -1.595375    0.443180
 H   -2.204198   -3.710694   -0.888796
 H   -2.991404   -4.535101    1.148629
 H    0.174399   -3.123158    0.941512
 H    0.301870   -5.414280   -0.004569
 H   -0.073578   -4.788261   -1.624253
 H    1.842058   -3.435701   -1.265596
 H    3.690593   -0.503547   -1.167944
 H    5.957765   -0.461243   -1.541032
 H    8.104410    0.759839   -1.464355
 H    8.176581    3.102355   -0.621903
 H    6.079590    4.191744    0.135986
 H    3.923258    2.961497    0.057511
