50 
2wca_ligand_dft.xyz
 C   -3.831488    5.753679    0.365391
 C   -4.197415    4.295629    0.096599
 C   -2.967880    3.392194    0.087946
 C   -3.302800    1.933267   -0.169964
 O   -4.437830    1.565234   -0.470554
 N   -2.259962    1.078407   -0.031341
 C   -2.267739   -0.309563   -0.471933
 C   -3.213241   -1.228574    0.326853
 O   -4.562522   -1.071916   -0.009396
 C   -2.901851   -2.690812    0.018628
 O   -3.718019   -3.536999    0.785204
 C   -1.455536   -3.006517    0.339275
 C   -1.026104   -4.416567   -0.020705
 O    0.331843   -4.631533    0.276740
 O   -0.599023   -2.139167   -0.442739
 C   -0.833682   -0.823379   -0.401642
 N    0.092272    0.052083   -0.403224
 O    1.355017   -0.518990   -0.369496
 C    2.329889    0.440329   -0.172901
 O    2.120270    1.607074    0.027723
 N    3.526345   -0.208036   -0.244040
 C    4.814245    0.332784   -0.058295
 C    5.891753   -0.556486   -0.116026
 C    7.189941   -0.095142    0.055341
 C    7.430255    1.256062    0.287100
 C    6.354364    2.135734    0.343145
 C    5.046915    1.690583    0.172251
 H   -4.723051    6.388289    0.360941
 H   -3.143432    6.137787   -0.396615
 H   -3.344191    5.868636    1.340543
 H   -4.902029    3.937295    0.854568
 H   -4.713649    4.204173   -0.864126
 H   -2.430065    3.464144    1.042533
 H   -2.257486    3.720689   -0.683146
 H   -1.334772    1.471038    0.105643
 H   -2.587581   -0.365065   -1.524008
 H   -3.040418   -1.049798    1.401760
 H   -4.738347   -0.117900   -0.157294
 H   -3.067984   -2.849525   -1.060680
 H   -4.612372   -3.172194    0.711023
 H   -1.247764   -2.821874    1.400059
 H   -1.611531   -5.121809    0.571972
 H   -1.245167   -4.594494   -1.085418
 H    0.826406   -3.943470   -0.187127
 H    3.473086   -1.200013   -0.422700
 H    5.712368   -1.614339   -0.294096
 H    8.014739   -0.799725    0.008791
 H    8.444255    1.618497    0.422397
 H    6.527039    3.192746    0.522326
 H    4.215714    2.380779    0.216673
