50 
2wca_ligand_aiqm1.xyz
 C   -4.796447    4.306408    1.115999
 C   -4.838650    2.839860    0.710896
 C   -3.450017    2.225304    0.711435
 C   -3.440289    0.762777    0.323331
 O   -4.453398    0.131709    0.034392
 N   -2.214578    0.180343    0.349572
 C   -1.955282   -1.123407   -0.233602
 C   -2.450772   -2.294306    0.620133
 O   -3.851766   -2.428705    0.663379
 C   -1.921641   -3.588105    0.020392
 O   -2.326699   -4.706587    0.774102
 C   -0.408818   -3.576007   -0.001632
 C    0.204414   -4.785073   -0.665278
 O    1.615675   -4.729626   -0.634830
 O    0.059698   -2.443325   -0.784261
 C   -0.459250   -1.245973   -0.462278
 N    0.217645   -0.165693   -0.408699
 O    1.575776   -0.404088   -0.656794
 C    2.304356    0.760439   -0.464672
 O    1.840571    1.797233   -0.086954
 N    3.590224    0.464463   -0.776922
 C    4.706272    1.330931   -0.717419
 C    5.946589    0.791492   -1.061612
 C    7.089592    1.581270   -1.029316
 C    7.005327    2.918274   -0.652936
 C    5.765464    3.448979   -0.311349
 C    4.608608    2.672308   -0.338109
 H   -5.792760    4.746171    1.115190
 H   -4.173484    4.881498    0.428114
 H   -4.378590    4.420358    2.118266
 H   -5.480393    2.275080    1.388186
 H   -5.277940    2.731081   -0.281891
 H   -2.990669    2.312668    1.700821
 H   -2.790926    2.762449    0.021918
 H   -1.394994    0.773201    0.418292
 H   -2.451010   -1.205800   -1.206932
 H   -2.054547   -2.171230    1.639120
 H   -4.265963   -1.580330    0.432132
 H   -2.291423   -3.663120   -1.013762
 H   -3.266840   -4.599797    0.944043
 H   -0.026619   -3.475517    1.021278
 H   -0.096133   -5.674083   -0.115419
 H   -0.170780   -4.861990   -1.693503
 H    1.884638   -3.929391   -1.091994
 H    3.761110   -0.481702   -1.068264
 H    6.014821   -0.250398   -1.354728
 H    8.041672    1.145184   -1.298975
 H    7.891059    3.536738   -0.625891
 H    5.691743    4.488068   -0.017319
 H    3.655426    3.099965   -0.070149
