46 
2wey_ligand_dft.xyz
 C   -4.520147    1.433781    2.094305
 O   -3.235168    0.844747    1.974710
 C   -2.888522    0.489521    0.701051
 C   -3.475403   -0.632983    0.082360
 O   -4.411212   -1.294754    0.812035
 C   -5.000725   -2.438165    0.239167
 C   -3.064082   -0.988349   -1.198243
 C   -2.076129   -0.245173   -1.849087
 C   -1.911065    1.212669    0.039589
 C   -1.483333    0.855766   -1.243771
 C   -0.403022    1.657798   -1.943628
 C    0.792388    1.977821   -1.069606
 N    0.987840    3.253900   -0.799578
 C    2.045270    3.594744   -0.023745
 C    2.929133    2.689852    0.500878
 C    2.739377    1.314117    0.235711
 C    1.638667    0.943616   -0.569959
 C    1.414680   -0.435096   -0.839788
 C    2.238970   -1.396562   -0.323275
 O    2.088942   -2.727545   -0.497245
 C    0.959761   -3.157819   -1.224897
 C    3.366893   -1.017565    0.483920
 C    3.601112    0.306527    0.749410
 O    4.112499   -2.050573    0.924382
 C    5.228335   -1.752814    1.733179
 H   -4.589465    2.342651    1.482252
 H   -5.310078    0.734239    1.801704
 H   -4.639165    1.697361    3.146870
 H   -5.545861   -2.194177   -0.682199
 H   -4.250967   -3.209736    0.020608
 H   -5.702215   -2.819542    0.982085
 H   -3.499162   -1.844848   -1.701025
 H   -1.765734   -0.543838   -2.847960
 H   -1.470312    2.062560    0.552892
 H   -0.805342    2.618562   -2.279431
 H   -0.074730    1.115092   -2.839346
 H    2.159798    4.658915    0.167013
 H    3.761467    3.018960    1.116362
 H    0.557905   -0.721301   -1.433437
 H    0.027246   -2.810325   -0.761348
 H    0.995874   -2.805168   -2.264211
 H    0.993144   -4.247665   -1.211645
 H    4.442459    0.611369    1.361605
 H    5.955440   -1.129423    1.197156
 H    4.926942   -1.243992    2.657686
 H    5.684431   -2.712115    1.978936
