26 
2wi1_ligand_xtb.xyz
 N   29.037524   12.137579   23.594266
 C   30.070615   11.503046   24.189018
 N   29.765404   10.574441   25.092515
 C   30.770619    9.907914   25.643355
 C   32.096868   10.174463   25.291358
 C   32.304402   11.175355   24.348999
 C   33.686005   11.550715   23.913532
 N   31.300241   11.839918   23.796805
 O   30.368220    9.003460   26.554275
 C   31.322808    8.187249   27.192169
 C   31.865736    7.071213   26.292250
 O   31.012023    5.959244   26.394657
 C   31.366581    4.909857   25.532895
 H   28.122171   12.005222   23.984239
 H   29.238326   12.949234   23.039256
 H   32.934628    9.649895   25.717863
 H   34.267855   11.895283   24.766630
 H   34.192402   10.688136   23.484081
 H   33.629658   12.341838   23.172412
 H   30.783155    7.719944   28.018850
 H   32.145123    8.791753   27.592789
 H   32.884494    6.794399   26.611481
 H   31.913810    7.418465   25.248610
 H   31.325054    5.223978   24.482407
 H   32.377729    4.541254   25.749761
 H   30.645649    4.113247   25.701827
