26 
2wmu_ligand_xtb.xyz
 C   14.540330   -3.195088    9.214273
 C   14.438526   -4.658728    8.767761
 O   13.392703   -5.325669    9.439132
 C   12.151297   -4.698078    9.206150
 C   12.171349   -3.235632    9.670549
 C   13.083250   -1.633193    8.051626
 N   14.166544   -1.189932    7.393156
 C   14.041363   -0.249253    6.475964
 N   12.945662    0.364967    6.072483
 C   11.861292   -0.070054    6.713844
 C   11.836881   -1.062083    7.710350
 N   10.541108   -1.247576    8.131903
 C    9.830451   -0.417109    7.434905
 N   10.566018    0.326377    6.557739
 N   13.261075   -2.553268    9.012544
 H   14.786972   -3.155801   10.280673
 H   15.290754   -2.660545    8.633432
 H   14.269748   -4.693586    7.680428
 H   15.352177   -5.203512    9.009761
 H   11.907461   -4.734131    8.133066
 H   11.410184   -5.271488    9.764467
 H   11.228604   -2.742736    9.435351
 H   12.348699   -3.205933   10.751624
 H   14.960504    0.053732    5.991800
 H   10.238909    1.029855    5.917727
 H    8.767141   -0.314536    7.527292
