40 
2wn9_ligand_xtb.xyz
 C   30.194981   -6.532026   62.623847
 C   30.930212   -7.075402   63.754492
 C   30.426627   -8.225292   64.402830
 O   29.245489   -8.701444   63.928375
 C   28.693823   -9.852823   64.519356
 C   31.118546   -8.783914   65.463921
 C   32.143850   -6.553634   64.186561
 C   32.840346   -7.115531   65.240478
 C   32.322409   -8.227962   65.887489
 O   32.954797   -8.822449   66.934338
 C   30.026079   -5.236895   62.311319
 C   30.438491   -4.082431   63.181476
 C   29.246636   -3.129149   63.288591
 C   28.850087   -2.655792   61.891077
 N   28.778911   -3.686904   60.901348
 C   29.292793   -4.835360   61.101700
 C   29.156039   -5.802758   59.996853
 C   27.944782   -5.918097   59.313243
 N   27.748222   -6.744142   58.305039
 C   28.757257   -7.503575   57.911647
 C   30.009328   -7.469216   58.506527
 C   30.212201   -6.601355   59.566027
 H   29.710128   -7.282766   62.012344
 H   29.364354  -10.712982   64.427061
 H   28.457034   -9.687467   65.575000
 H   27.774256  -10.051475   63.970982
 H   30.760114   -9.653302   65.989153
 H   32.571400   -5.713752   63.661816
 H   33.786237   -6.695958   65.554625
 H   33.773536   -8.351296   67.130389
 H   31.284272   -3.553198   62.730257
 H   30.733321   -4.430282   64.172263
 H   29.492659   -2.274191   63.920276
 H   28.407643   -3.661980   63.742930
 H   29.570993   -1.915971   61.519502
 H   27.871146   -2.165001   61.906497
 H   27.101242   -5.309632   59.608386
 H   28.549449   -8.163538   57.079332
 H   30.807708   -8.100060   58.146335
 H   31.179504   -6.531496   60.043918
