43 
2wnj_ligand_xtb.xyz
 C   30.268181   -6.681699   62.675020
 C   30.963379   -7.228793   63.828267
 C   30.398856   -8.335811   64.502001
 O   29.200796   -8.769565   64.026797
 C   28.589842   -9.876431   64.643217
 C   31.053462   -8.893273   65.584004
 C   32.195227   -6.758525   64.263615
 C   32.858771   -7.319865   65.341287
 C   32.282174   -8.387810   66.014446
 O   32.823017   -9.023304   67.090317
 C   30.170481   -5.389447   62.321852
 C   30.635174   -4.232386   63.161761
 C   29.495912   -3.213177   63.224778
 C   29.140947   -2.762889   61.808655
 N   29.022635   -3.819511   60.850697
 C   29.471211   -4.987262   61.092827
 C   29.292035   -5.980223   60.017012
 C   28.082321   -6.052148   59.324884
 N   27.850398   -6.897625   58.340523
 C   28.820667   -7.721655   57.981064
 C   30.067593   -7.735511   58.587435
 C   30.307560   -6.847026   59.621782
 C   34.060173   -8.570969   67.584351
 H   29.749529   -7.424106   62.081301
 H   29.220260  -10.769222   64.583056
 H   28.350332   -9.670396   65.691119
 H   27.667607  -10.047693   64.090025
 H   30.648623   -9.729664   66.129150
 H   32.670284   -5.955582   63.721681
 H   33.816834   -6.922249   65.634172
 H   31.513629   -3.763826   62.705910
 H   30.899461   -4.565214   64.166217
 H   29.781129   -2.353480   63.833180
 H   28.624215   -3.685491   63.684494
 H   29.905824   -2.076229   61.423180
 H   28.190726   -2.218448   61.796949
 H   27.270059   -5.390668   59.592446
 H   28.584939   -8.395271   57.167311
 H   30.834089   -8.418989   58.255034
 H   31.272980   -6.813950   60.107360
 H   34.852547   -8.670110   66.835485
 H   34.003373   -7.529878   67.917934
 H   34.288748   -9.209628   68.436102
