38 
2wo8_ligand_ani-2x.xyz
 C   -5.741242    0.341600   -0.410333
 C   -3.521463   -1.298236   -0.722019
 C   -4.492475    0.768597    0.026751
 C   -5.882004   -0.903868   -1.016419
 C   -4.766112   -1.721280   -1.174287
 C   -3.365432   -0.046197   -0.119291
 C   -2.031347    0.404873    0.354313
 O    3.167196   -0.816927    1.592364
 C   -1.182635   -0.464848    1.046637
 C   -0.335716    2.124674    0.556813
 C    2.999448    1.379440    0.700663
 C    3.122164   -0.101999    0.372038
 C    0.510698    1.257157    1.250785
 C   -1.585708    1.708393    0.120073
 C    0.062521   -0.046526    1.491333
 C    1.880498    1.698318    1.702450
 C    4.374580   -0.382991   -0.461784
 C    4.510277   -1.838976   -0.818807
 O    5.417736   -2.055044   -1.780354
 O    3.896328   -2.745856   -0.294080
 H   -6.605734    0.988065   -0.283479
 H   -2.650444   -1.936824   -0.854517
 H   -4.390060    1.739196    0.507701
 H   -6.856651   -1.235896   -1.363929
 H   -4.865237   -2.696241   -1.644400
 H    3.247220   -1.751505    1.343287
 H   -1.514237   -1.478383    1.255582
 H   -0.022428    3.149467    0.367171
 H    3.953976    1.725224    1.117639
 H    2.841717    1.931435   -0.234742
 H    2.237038   -0.419696   -0.206414
 H   -2.222273    2.400888   -0.426562
 H    0.717274   -0.744459    2.008227
 H    2.121530    1.203311    2.650081
 H    1.876500    2.778217    1.894363
 H    5.264783   -0.109758    0.118790
 H    4.385337    0.213395   -1.379147
 H    5.444978   -3.016742   -1.921995
