43 
2wo9_ligand_ani-2x.xyz
 C   -7.261923   -1.659522   -0.188463
 C   -6.320704   -1.282507   -1.311795
 O   -6.653778   -1.403307   -2.475241
 C   -4.963954   -0.755150   -0.962643
 C   -4.531680   -0.598024    0.355060
 C   -3.260795   -0.112123    0.624603
 C   -4.099724   -0.408103   -2.004596
 C   -2.837689    0.091011   -1.732301
 C   -2.393782    0.244345   -0.413018
 C   -1.038313    0.769775   -0.121437
 C   -0.244763    0.194906    0.876783
 C    1.025808    0.679047    1.148625
 C   -0.515760    1.854681   -0.831005
 C    0.747777    2.352355   -0.545219
 C    1.543404    1.772547    0.445392
 C    2.932245    2.287561    0.729094
 C    4.035740    1.565635   -0.056838
 C    4.082519    0.064913    0.195285
 O    4.088923   -0.141893    1.595178
 C    5.319773   -0.567388   -0.446878
 C    5.379588   -2.055828   -0.230447
 O    4.718664   -2.669178    0.582999
 O    6.275241   -2.659961   -1.022635
 H   -7.464229   -0.796108    0.455177
 H   -8.196029   -2.018394   -0.623137
 H   -6.823619   -2.444067    0.438545
 H   -5.183551   -0.863139    1.182701
 H   -2.942782    0.012418    1.656699
 H   -4.442755   -0.531565   -3.027045
 H   -2.172497    0.346741   -2.553850
 H   -0.623801   -0.660146    1.430128
 H    1.638861    0.199965    1.908655
 H   -1.120396    2.329813   -1.600583
 H    1.120596    3.208115   -1.104656
 H    2.981910    3.359697    0.502972
 H    3.145567    2.173354    1.797964
 H    5.005834    1.997207    0.221095
 H    3.908988    1.734013   -1.133951
 H    3.182949   -0.404121   -0.240152
 H    4.120768   -1.104316    1.716020
 H    6.222206   -0.139459    0.007716
 H    5.362758   -0.359321   -1.520303
 H    6.252204   -3.604779   -0.793596
