43 
2wo9_ligand_xtb.xyz
 C   -7.201497   -1.579452   -0.304878
 C   -6.183337   -1.358014   -1.398362
 O   -6.436361   -1.610395   -2.556563
 C   -4.862412   -0.818675   -0.994707
 C   -4.517620   -0.527248    0.325128
 C   -3.266666   -0.029319    0.626412
 C   -3.915549   -0.592379   -1.996245
 C   -2.668974   -0.090047   -1.694261
 C   -2.322189    0.199510   -0.374413
 C   -0.995134    0.733711   -0.044793
 C   -0.305676    0.289716    1.081569
 C    0.943644    0.793597    1.387626
 C   -0.396305    1.699875   -0.850970
 C    0.849294    2.205713   -0.535813
 C    1.538699    1.760079    0.586108
 C    2.909018    2.285058    0.898774
 C    3.978392    1.619112    0.022924
 C    4.099789    0.122927    0.320545
 O    4.469898   -0.031201    1.666360
 C    5.137472   -0.529787   -0.616620
 C    5.203923   -2.017568   -0.401726
 O    5.043838   -2.575655    0.655111
 O    5.464296   -2.682224   -1.528050
 H   -7.415110   -0.642154    0.204166
 H   -8.117388   -1.967316   -0.743469
 H   -6.820938   -2.293889    0.421853
 H   -5.223367   -0.684940    1.125886
 H   -3.019262    0.207698    1.650994
 H   -4.187666   -0.824108   -3.015436
 H   -1.945055    0.062902   -2.481167
 H   -0.743406   -0.474128    1.707830
 H    1.470681    0.432938    2.258973
 H   -0.924674    2.074306   -1.715757
 H    1.292785    2.963734   -1.166264
 H    2.939556    3.362830    0.725309
 H    3.155546    2.089714    1.942182
 H    4.942414    2.088699    0.223514
 H    3.731879    1.753310   -1.031486
 H    3.122595   -0.358686    0.141567
 H    4.626599   -0.974947    1.821060
 H    6.123145   -0.115825   -0.386592
 H    4.910389   -0.329943   -1.662829
 H    5.514535   -3.637829   -1.362590
