39 
2woa_ligand_xtb.xyz
 O    3.172375    2.072268   -0.202887
 C    3.037603    0.674049   -0.207175
 C    4.229276    0.003160    0.507426
 C    4.275479    0.380126    1.963026
 O    4.767487   -0.597962    2.725225
 O    3.917249    1.436280    2.421546
 C    2.950893    0.202098   -1.659982
 C    1.728439    0.792643   -2.374812
 C    0.445863    0.300199   -1.768466
 C   -0.259091    1.096928   -0.869820
 C   -1.413949    0.611125   -0.296401
 C   -2.334691    1.274449    0.687028
 C   -3.388485    0.227266    0.904746
 C   -4.504745    0.268459    1.712730
 C   -5.344804   -0.836398    1.748356
 C   -5.069469   -1.962245    0.986951
 C   -3.949958   -2.011860    0.172876
 C   -3.108257   -0.911887    0.133578
 C   -1.883294   -0.673342   -0.610413
 C   -1.186843   -1.469995   -1.505065
 C   -0.027381   -0.972924   -2.073658
 H    3.296839    2.350954    0.716601
 H    2.111949    0.383447    0.319074
 H    4.185671   -1.081681    0.421402
 H    5.155757    0.353391    0.043794
 H    4.799401   -0.327033    3.657185
 H    3.855113    0.521867   -2.180043
 H    2.899316   -0.887683   -1.676697
 H    1.772216    0.509432   -3.428680
 H    1.784164    1.878551   -2.301159
 H    0.106263    2.085246   -0.629778
 H   -2.758699    2.197515    0.284009
 H   -1.819216    1.530757    1.616044
 H   -4.725323    1.143003    2.308259
 H   -6.223707   -0.818862    2.376311
 H   -5.737740   -2.810207    1.030271
 H   -3.738939   -2.890238   -0.419082
 H   -1.540875   -2.458946   -1.756524
 H    0.524314   -1.582250   -2.776095
