41 
2won_ligand_ani-2x.xyz
 C    8.324054   12.280489   17.320261
 C    7.176123   12.306631   16.558024
 C    9.390157   12.664306   16.468586
 O    8.356760   11.836060   18.609181
 N    7.583576   12.723520   15.328335
 C    5.789278   11.896239   16.941063
 N    8.909149   12.929128   15.260369
 C   10.847053   12.846537   16.796661
 C    9.167899   12.489101   19.509641
 C    6.812104   12.908821   14.116807
 C    5.562833   10.378830   16.864009
 C   11.780732   12.602751   15.616424
 C    9.862631   11.699899   20.416736
 C    9.271254   13.878276   19.538027
 C    7.128174   11.844687   13.077685
 C   10.713225   12.312757   21.336141
 C   10.126139   14.474107   20.465885
 O    6.422217   12.217400   11.910450
 C   10.855523   13.703417   21.368036
 C   11.468945   11.517108   22.269338
 C   10.285058   15.903596   20.478280
 N   12.081337   10.887595   23.024013
 N   10.421203   17.053599   20.492271
 H    5.042941   12.422150   16.330996
 H    5.619169   12.228846   17.972995
 H   11.112872   12.189899   17.635398
 H   10.983731   13.867731   17.185561
 H    7.045713   13.890572   13.697573
 H    5.748214   12.887033   14.361915
 H    5.721830   10.002688   15.847099
 H    6.257831    9.856756   17.528934
 H    4.542227   10.125875   17.165061
 H   11.730730   11.562096   15.279157
 H   11.520543   13.244898   14.769614
 H   12.814751   12.812876   15.907950
 H    9.751789   10.620437   20.391791
 H    8.716256   14.488395   18.834799
 H    6.809124   10.855287   13.442301
 H    8.214764   11.816534   12.917795
 H    6.640726   11.589814   11.212423
 H   11.521966   14.172458   22.084513
