60 
2wot_ligand_ani-2x.xyz
 C   -2.911346    6.035481    1.618061
 O   -2.691813    6.032824    3.012149
 C   -1.407087    6.117429    3.441964
 C   -0.303407    6.238832    2.601277
 C    0.980018    6.375134    3.146316
 N    2.059793    6.481364    2.256836
 C    3.275275    7.111501    2.453071
 C    3.447397    8.128584    3.393203
 C    4.701299    8.713780    3.519853
 O    4.807501    9.671602    4.493847
 C    6.025576   10.225447    4.822987
 C    6.653073   11.106761    3.962671
 C    7.806036   11.765442    4.378757
 C    8.512481   12.717317    3.450852
 C    8.268697   11.503582    5.679879
 C    9.495564   12.178027    6.242064
 N    7.654911   10.648904    6.498394
 C    6.571677    9.994651    6.085924
 C    5.953106    8.988963    7.002869
 C    5.735870    7.684351    6.554814
 C    5.122600    6.778233    7.404866
 C    4.736908    7.207732    8.667900
 C    5.003714    8.526875    9.021483
 N    5.606921    9.404731    8.223082
 C    5.746124    8.269719    2.710181
 C    5.444745    7.280570    1.781554
 N    4.251447    6.710198    1.625618
 C    1.154793    6.364305    4.531357
 C    0.043318    6.234378    5.367944
 O    0.105763    6.260722    6.724300
 C    1.386213    6.389896    7.302350
 C   -1.239543    6.078841    4.832903
 O   -2.311372    5.868067    5.654486
 C   -2.940560    7.068271    6.073934
 H   -2.564398    6.970520    1.159315
 H   -2.414782    5.185994    1.130963
 H   -3.990118    5.947415    1.483745
 H   -0.419383    6.246813    1.523478
 H    2.037207    5.927087    1.411978
 H    2.629370    8.485149    4.007155
 H    6.239465   11.259785    2.967667
 H    8.886261   12.192542    2.564442
 H    7.825603   13.495210    3.100506
 H    9.362737   13.213326    3.924358
 H   10.391149   11.936412    5.656944
 H    9.390785   13.269729    6.246475
 H    9.643769   11.834604    7.268488
 H    6.053322    7.387595    5.560933
 H    4.940101    5.755537    7.081914
 H    4.235144    6.544694    9.367041
 H    4.724104    8.901715   10.003841
 H    6.753008    8.665804    2.783937
 H    6.224826    6.921504    1.113180
 H    2.155350    6.420820    4.944116
 H    2.031301    5.541716    7.032817
 H    1.867816    7.326250    6.988560
 H    1.244324    6.402150    8.384591
 H   -2.243004    7.695954    6.642889
 H   -3.322198    7.629321    5.211384
 H   -3.774750    6.776541    6.716237
