57 
2wpa_ligand_aiqm1.xyz
 O  -15.943975  206.372872  114.185758
 C  -14.821731  206.848302  114.350812
 C  -14.335531  207.045446  115.802029
 C  -14.678239  208.470009  116.249376
 C  -14.266586  208.698817  117.690604
 N  -14.939289  207.677883  118.598358
 C  -14.600013  207.920984  120.027745
 C  -14.579407  206.263117  118.174287
 C  -14.985442  206.029206  116.731780
 N  -13.987860  207.261397  113.413852
 C  -12.625084  207.796713  113.699924
 C  -14.315024  207.210758  111.904583
 C  -15.575365  208.025226  111.612814
 C  -14.483868  205.757040  111.463046
 C  -13.086852  207.849086  111.373970
 N  -12.678862  208.222150  110.155838
 N  -11.459103  208.819813  110.328351
 C  -11.166985  208.804116  111.640160
 C  -12.168156  208.181216  112.351072
 N   -9.943260  209.365405  112.075237
 C   -9.581423  209.632748  113.340073
 O  -10.274591  209.406653  114.329092
 C   -8.199598  210.273308  113.452018
 C   -7.610733  210.239258  114.856330
 C   -7.247355  208.812767  115.265044
 C   -6.387610  211.148203  114.940016
 H  -13.256384  206.928332  115.857429
 H  -15.751702  208.640571  116.123971
 H  -14.160720  209.191315  115.629183
 H  -14.544369  209.684079  118.059053
 H  -13.192662  208.570170  117.803192
 H  -15.951785  207.785511  118.482888
 H  -15.106707  207.195877  120.656228
 H  -13.527302  207.820881  120.161467
 H  -14.901330  208.923432  120.312416
 H  -15.072053  205.586017  118.869774
 H  -13.501610  206.163609  118.291048
 H  -14.688422  205.025647  116.441727
 H  -16.067431  206.084745  116.615862
 H  -12.002073  207.025131  114.177118
 H  -12.678889  208.644154  114.392409
 H  -16.456925  207.556847  112.055488
 H  -15.469387  209.045881  111.988170
 H  -15.695583  208.069995  110.530570
 H  -13.591318  205.176806  111.705888
 H  -15.358025  205.306799  111.940057
 H  -14.618310  205.747049  110.381219
 H   -9.324433  209.643614  111.332380
 H   -8.297931  211.311693  113.112252
 H   -7.515389  209.779200  112.752274
 H   -8.375881  210.610706  115.544787
 H   -8.124167  208.167016  115.226056
 H   -6.489996  208.408564  114.586152
 H   -6.838132  208.787926  116.279381
 H   -5.611860  210.801737  114.250879
 H   -6.637470  212.177740  114.674735
 H   -5.963316  211.149662  115.946377
