57 
2wpa_ligand_xtb.xyz
 O  -15.713291  206.234403  114.319351
 C  -14.649928  206.803517  114.539751
 C  -14.310911  207.128020  116.025397
 C  -14.977180  208.470396  116.331099
 C  -14.914675  208.793788  117.815719
 N  -15.584087  207.709765  118.581622
 C  -15.737496  208.045036  120.002570
 C  -14.864271  206.425803  118.379999
 C  -14.905380  206.036053  116.910892
 N  -13.779835  207.238799  113.647392
 C  -12.516890  207.909847  113.994188
 C  -13.999872  207.089869  112.173363
 C  -15.311530  207.756452  111.762382
 C  -13.993308  205.609162  111.797799
 C  -12.814649  207.827052  111.641037
 N  -12.344966  208.186663  110.447474
 N  -11.230999  208.893478  110.658910
 C  -11.005508  208.983608  111.980419
 C  -11.999960  208.301413  112.665865
 N   -9.889462  209.691251  112.444619
 C   -9.602934  210.027140  113.709476
 O  -10.298300  209.752120  114.682604
 C   -8.282739  210.776310  113.870272
 C   -7.174542  209.822333  114.339235
 C   -6.862679  208.778584  113.269774
 C   -5.914643  210.608729  114.695939
 H  -13.235286  207.192545  116.181773
 H  -16.018305  208.434752  115.997489
 H  -14.481308  209.264050  115.772025
 H  -15.417714  209.739034  118.030387
 H  -13.877631  208.861703  118.150352
 H  -16.511694  207.588206  118.156186
 H  -16.260421  207.246861  120.526818
 H  -14.754499  208.176858  120.452360
 H  -16.301282  208.969592  120.114975
 H  -15.336316  205.658390  118.997490
 H  -13.833347  206.562201  118.714054
 H  -14.348384  205.109649  116.771087
 H  -15.930273  205.845400  116.580117
 H  -11.843097  207.212023  114.511814
 H  -12.680473  208.777880  114.640409
 H  -16.163731  207.233851  112.190373
 H  -15.319797  208.794364  112.090673
 H  -15.377686  207.739588  110.678476
 H  -13.064581  205.145720  112.125142
 H  -14.835221  205.095255  112.257009
 H  -14.058774  205.523810  110.717053
 H   -9.286818  209.991720  111.692207
 H   -8.429691  211.547841  114.629257
 H   -7.989425  211.255428  112.934438
 H   -7.536564  209.308483  115.236766
 H   -7.749466  208.198749  113.026678
 H   -6.504892  209.259832  112.361127
 H   -6.091368  208.095201  113.620104
 H   -5.543883  211.143868  113.823698
 H   -6.119686  211.333145  115.481424
 H   -5.131851  209.937612  115.043688
