57 
2wpa_ligand_ani-2x.xyz
 O  -15.866945  206.653871  114.214520
 C  -14.768293  207.131957  114.478133
 C  -14.395133  207.344151  115.945319
 C  -15.237730  208.501216  116.507386
 C  -15.001204  208.666416  118.000871
 N  -15.312920  207.380743  118.710843
 C  -15.268889  207.526503  120.170190
 C  -14.422179  206.276423  118.220374
 C  -14.654574  206.053681  116.733904
 N  -13.880442  207.507556  113.500452
 C  -12.555153  208.106643  113.727758
 C  -14.236529  207.338127  112.052485
 C  -15.464508  208.169241  111.663466
 C  -14.462795  205.867303  111.686276
 C  -12.988560  207.875746  111.422300
 N  -12.598265  208.027676  110.182423
 N  -11.319308  208.590103  110.231965
 C  -10.995146  208.751905  111.505395
 C  -12.042089  208.306294  112.345744
 N   -9.756626  209.299920  111.832610
 C   -9.293756  209.517720  113.102793
 O   -9.954727  209.241542  114.087991
 C   -7.907032  210.142577  113.171186
 C   -7.326082  210.208272  114.585307
 C   -7.037357  208.815055  115.143468
 C   -6.060870  211.064503  114.586290
 H  -13.334141  207.602262  116.051146
 H  -16.296669  208.272871  116.334275
 H  -15.012683  209.438362  115.985868
 H  -15.625985  209.456732  118.424795
 H  -13.953387  208.918141  118.202641
 H  -16.280798  207.121105  118.441928
 H  -15.536236  206.582495  120.652302
 H  -14.255373  207.803297  120.483671
 H  -15.958839  208.310991  120.492037
 H  -14.633823  205.375708  118.802077
 H  -13.383216  206.568156  118.413719
 H  -14.017942  205.239555  116.371173
 H  -15.696797  205.754545  116.573140
 H  -11.904101  207.443918  114.313456
 H  -12.626481  209.054795  114.277317
 H  -16.353466  207.793691  112.174824
 H  -15.311264  209.219606  111.926054
 H  -15.613446  208.094716  110.581248
 H  -13.593141  205.267535  111.968441
 H  -15.349345  205.482434  112.194929
 H  -14.607907  205.790549  110.603678
 H   -9.200119  209.537948  111.024941
 H   -7.975566  211.154870  112.747111
 H   -7.234457  209.579726  112.507597
 H   -8.080212  210.682415  115.226129
 H   -7.949212  208.214070  115.186177
 H   -6.305950  208.290987  114.513970
 H   -6.619608  208.882570  116.154652
 H   -5.296790  210.622590  113.933774
 H   -6.263804  212.079710  114.227025
 H   -5.635627  211.141707  115.593056
