36 
2wpb_ligand_aiqm1.xyz
 C   -2.656794   -2.371062   -0.409873
 C   -2.934496   -1.043702   -1.107959
 C   -1.669833   -0.316895   -1.565199
 N   -0.763215    0.033128   -0.469430
 C   -1.110422    1.211076    0.326977
 C   -0.656774    2.524963   -0.301659
 C   -1.049859    3.717926    0.559417
 C    0.296821   -0.772622   -0.243834
 O    0.524807   -1.767328   -0.928405
 C    1.203255   -0.455953    0.958742
 O    1.696456    0.875134    0.955914
 C    2.327942   -1.476243    1.112940
 O    2.972258   -1.252251    2.359854
 C    3.335650   -1.500965   -0.028153
 O    3.866585   -0.177829   -0.222704
 H   -2.104263   -2.224963    0.520572
 H   -3.588334   -2.886962   -0.168531
 H   -2.060073   -3.023543   -1.045984
 H   -3.521053   -0.389506   -0.456392
 H   -3.546410   -1.216783   -1.995889
 H   -1.107745   -0.941939   -2.256114
 H   -1.949252    0.603703   -2.083423
 H   -0.684027    1.102538    1.322288
 H   -2.197771    1.220448    0.442594
 H   -1.100631    2.617639   -1.298202
 H    0.424683    2.502408   -0.429492
 H   -0.586565    3.648530    1.544523
 H   -0.729240    4.654456    0.103882
 H   -2.132691    3.766079    0.697376
 H    0.580203   -0.536612    1.851490
 H    2.482594    0.872699    0.392021
 H    1.889573   -2.472921    1.162971
 H    3.168792   -0.311057    2.409953
 H    2.847524   -1.852668   -0.932965
 H    4.142273   -2.185026    0.246178
 H    4.389933   -0.173799   -1.023483
