42 
2wtc_ligand_ani-2x.xyz
 C   -5.392623   51.330370   13.456232
 O   -5.720903   51.677398   12.118076
 C   -6.010714   50.612073   11.308301
 C   -7.319870   50.389285   10.910643
 C   -7.650110   49.352108   10.031341
 C   -9.050519   49.124549    9.605330
 C  -10.114426   49.226564   10.497726
 N  -11.387188   49.001442   10.177844
 C  -11.680233   48.670174    8.921828
 N  -13.018525   48.466866    8.636202
 C  -10.690597   48.561752    7.914296
 C  -11.030322   48.217985    6.511142
 C  -10.262380   47.264774    5.832511
 C  -10.533721   46.939362    4.513732
 C  -11.564725   47.586153    3.829053
 C  -11.905250   47.287505    2.401283
 N  -10.898349   46.738553    1.646132
 O  -13.013151   47.500618    1.941317
 C  -12.339268   48.531133    4.501330
 C  -12.076986   48.846452    5.824493
 C   -9.374231   48.771814    8.295472
 C   -6.622869   48.536095    9.556832
 C   -5.307935   48.739144    9.959884
 C   -4.990515   49.772794   10.834670
 O   -3.723535   50.030401   11.259619
 H   -6.232671   50.814778   13.940585
 H   -4.499699   50.699044   13.499494
 H   -5.200548   52.271225   13.977435
 H   -8.084365   51.067612   11.278742
 H   -9.926230   49.478004   11.540944
 H  -13.572125   48.373782    9.476831
 H  -13.213599   47.749459    7.950252
 H   -9.451674   46.762410    6.356604
 H   -9.949753   46.165223    4.021994
 H  -11.101780   46.671894    0.659101
 H   -9.935581   46.909038    1.893302
 H  -13.160626   48.998585    3.968763
 H  -12.682717   49.585249    6.341502
 H   -8.588661   48.701147    7.544512
 H   -6.855572   47.717549    8.880070
 H   -4.517458   48.090085    9.586300
 H   -3.122093   49.394954   10.852084
