42 
2wtc_ligand_xtb.xyz
 C   -4.856879   49.710455   13.778088
 O   -6.098038   49.584689   13.121537
 C   -6.200405   49.800462   11.780784
 C   -7.487977   49.646132   11.274813
 C   -7.789864   49.817080    9.930218
 C   -9.162889   49.649353    9.444800
 C  -10.260612   50.079278   10.185928
 N  -11.511739   49.938027    9.795475
 C  -11.770948   49.375711    8.618894
 N  -13.092386   49.283902    8.285623
 C  -10.741276   48.928183    7.759158
 C  -11.021695   48.316938    6.453314
 C  -10.396781   47.123640    6.092368
 C  -10.641716   46.538067    4.866044
 C  -11.521482   47.134688    3.966985
 C  -11.850955   46.543248    2.639494
 N  -10.868763   45.794425    2.075133
 O  -12.922203   46.709973    2.094333
 C  -12.153683   48.321912    4.327490
 C  -11.904183   48.910250    5.550289
 C   -9.438197   49.064839    8.207740
 C   -6.757137   50.157705    9.061883
 C   -5.476330   50.319381    9.548461
 C   -5.170969   50.146913   10.892881
 O   -3.878386   50.317034   11.325773
 H   -4.122558   48.998956   13.394299
 H   -4.455321   50.722463   13.692710
 H   -5.064277   49.489262   14.824763
 H   -8.256245   49.364546   11.977375
 H  -10.128986   50.572713   11.139452
 H  -13.731547   49.449588    9.045581
 H  -13.365878   48.603937    7.596232
 H   -9.727869   46.644435    6.792745
 H  -10.169320   45.595514    4.627958
 H  -11.032676   45.411418    1.158998
 H   -9.939832   45.757143    2.452626
 H  -12.840988   48.771503    3.626774
 H  -12.377119   49.846548    5.806882
 H   -8.626714   48.715563    7.584809
 H   -6.954349   50.320427    8.013645
 H   -4.676371   50.592445    8.871097
 H   -3.328552   50.556655   10.570349
