42 
2wtc_ligand_aiqm1.xyz
 C   -5.075282   48.974927   13.450938
 O   -5.902649   50.075868   13.078098
 C   -6.161238   50.149979   11.737144
 C   -7.453361   49.930882   11.277168
 C   -7.785543   50.044017    9.921075
 C   -9.173044   49.822509    9.463673
 C  -10.267754   50.239479   10.216204
 N  -11.539617   50.053912    9.853465
 C  -11.795683   49.450000    8.692791
 N  -13.134759   49.340662    8.359524
 C  -10.771560   48.989661    7.832061
 C  -11.032235   48.327582    6.526296
 C  -10.350784   47.147666    6.197574
 C  -10.550389   46.528723    4.969118
 C  -11.433970   47.079542    4.038899
 C  -11.696088   46.458578    2.702206
 N  -10.755159   45.563744    2.263120
 O  -12.692796   46.716130    2.054138
 C  -12.124435   48.248363    4.362230
 C  -11.923152   48.868927    5.588590
 C   -9.464985   49.182876    8.254971
 C   -6.767888   50.365511    9.019790
 C   -5.468620   50.589104    9.467638
 C   -5.155760   50.489719   10.819998
 O   -3.895261   50.700965   11.301078
 H   -5.560734   48.032051   13.184791
 H   -4.101318   49.036923   12.966110
 H   -4.958460   49.037388   14.529417
 H   -8.207475   49.671169   12.011020
 H  -10.118025   50.758055   11.155856
 H  -13.733313   49.516241    9.151269
 H  -13.392522   48.523908    7.828110
 H   -9.665843   46.711262    6.915625
 H  -10.045231   45.595074    4.751302
 H  -10.863129   45.269605    1.307523
 H   -9.816732   45.615994    2.615102
 H  -12.818050   48.652342    3.637908
 H  -12.462840   49.773865    5.835425
 H   -8.653794   48.830446    7.626909
 H   -6.987955   50.461678    7.964891
 H   -4.691475   50.850770    8.755763
 H   -3.325192   50.949303   10.568993
