40 
2wtd_ligand_ani-2x.xyz
 N   35.060926  -32.396673   13.776534
 C   35.033658  -33.585010   13.089058
 O   34.619197  -34.613020   13.594881
 C   35.522642  -33.534405   11.674145
 C   35.536711  -32.360050   10.918609
 C   36.008206  -32.376489    9.616334
 C   36.445523  -33.566748    9.024186
 C   36.970170  -33.535899    7.636386
 C   37.835850  -32.534679    7.226589
 C   38.349341  -32.508303    5.929839
 C   39.248020  -31.416616    5.477928
 C   39.153326  -30.117104    6.006111
 C   39.993701  -29.092132    5.591353
 C   40.987893  -29.307779    4.625416
 C   41.069093  -30.575945    4.105745
 O   41.960095  -31.057893    3.182447
 C   41.455926  -32.337690    2.830488
 O   40.579050  -32.757352    3.866471
 C   40.223846  -31.600782    4.513209
 C   37.945715  -33.539558    5.082342
 N   37.090844  -34.500328    5.432176
 C   36.599566  -34.502380    6.668017
 N   35.725958  -35.528353    6.981009
 C   36.409400  -34.744313    9.781230
 C   35.951275  -34.725325   11.088440
 H   34.858790  -32.477098   14.762827
 H   35.718475  -31.679046   13.512435
 H   35.162752  -31.430845   11.341578
 H   36.027898  -31.456577    9.035344
 H   38.148933  -31.785284    7.952870
 H   38.383024  -29.905153    6.743536
 H   39.884717  -28.103735    6.028815
 H   41.657142  -28.516951    4.302030
 H   42.285515  -33.042273    2.743917
 H   40.890744  -32.266127    1.888594
 H   38.327381  -33.586913    4.067219
 H   34.979645  -35.285037    7.619072
 H   35.399770  -36.009898    6.154234
 H   36.745434  -35.674291    9.331684
 H   35.900448  -35.636445   11.675004
