35 
2wxm_ligand_dft.xyz
 C    4.382292   -2.012105   -1.144176
 C    3.543950   -2.053050    0.132727
 C    4.381320   -1.852761    1.395139
 N    2.465400   -1.063269    0.070416
 N    1.177915   -1.469317    0.096846
 C    2.564463    0.290313   -0.013542
 N    3.687251    1.030994   -0.063341
 C    3.418662    2.324645   -0.151965
 N    2.226038    2.943632   -0.199116
 C    1.127706    2.185924   -0.144599
 N   -0.076563    2.795967   -0.173701
 C    1.258533    0.783083   -0.042915
 C    0.431778   -0.374241    0.030073
 C   -0.989349   -0.413023    0.035770
 C   -2.199330   -0.369322    0.039932
 C   -3.627605   -0.356289    0.040831
 C   -4.353975    0.683118    0.632466
 C   -5.739728    0.635014    0.594967
 C   -6.352146   -0.448746   -0.028245
 N   -5.678302   -1.452084   -0.596258
 C   -4.350407   -1.399310   -0.559319
 H    3.751986   -2.164460   -2.025328
 H    4.893673   -1.049848   -1.236798
 H    5.135249   -2.805966   -1.115415
 H    3.013177   -3.006429    0.192413
 H    4.893523   -0.886895    1.366737
 H    3.750063   -1.892675    2.287782
 H    5.133624   -2.644501    1.467102
 H    4.280149    2.986985   -0.196624
 H   -0.098639    3.785239   -0.364938
 H   -0.918647    2.252124   -0.279474
 H   -3.833000    1.504394    1.115040
 H   -6.338578    1.420746    1.043045
 H   -7.436576   -0.516976   -0.074160
 H   -3.815171   -2.222706   -1.026172
