35 
2wxm_ligand_xtb.xyz
 C   -4.561415   -1.870836   23.109885
 C   -5.902682   -2.188324   23.765797
 C   -5.727902   -3.103399   24.974964
 N   -6.543264   -0.960384   24.176681
 N   -7.725994   -0.603258   23.672885
 C   -6.090408   -0.047374   25.063662
 N   -4.952066   -0.056688   25.768481
 C   -4.819123    0.995073   26.545500
 N   -5.647283    2.020020   26.703747
 C   -6.783302    2.039583   26.007943
 N   -7.621683    3.077855   26.176002
 C   -7.062913    0.974459   25.131310
 C   -8.073170    0.551134   24.219412
 C   -9.261583    1.227911   23.923859
 C  -10.267157    1.868208   23.719012
 C  -11.449829    2.580715   23.450205
 C  -11.754636    3.777949   24.103913
 C  -12.934630    4.426126   23.790576
 C  -13.770009    3.859801   22.837421
 N  -13.492156    2.726899   22.212220
 C  -12.370573    2.105197   22.506101
 H   -4.701576   -1.216275   22.252403
 H   -3.912782   -1.377447   23.829534
 H   -4.086007   -2.788102   22.774238
 H   -6.585258   -2.642051   23.039028
 H   -5.087634   -2.618707   25.707895
 H   -6.690895   -3.318338   25.433017
 H   -5.270724   -4.040004   24.668680
 H   -3.913960    1.036007   27.137470
 H   -7.358183    3.815426   26.804032
 H   -8.473707    3.126309   25.646807
 H  -11.076028    4.184684   24.841387
 H  -13.202457    5.352305   24.275454
 H  -14.703551    4.330294   22.559326
 H  -12.178958    1.182629   21.974254
