52 
2wxv_ligand_xtb.xyz
 C  -35.004917  176.549543   86.793188
 C  -33.857350  176.623076   86.067963
 C  -33.815074  174.164418   85.984597
 C  -33.255690  175.414894   85.656046
 C  -32.099797  175.087575   84.902796
 N  -31.988319  173.768453   84.795107
 N  -33.009568  173.220195   85.438473
 C  -33.167731  171.796897   85.504115
 C  -31.127786  176.018235   84.299204
 O  -31.223753  177.229306   84.386599
 C  -35.588574  175.299562   87.137131
 C  -35.004110  174.065348   86.745293
 N  -35.547667  172.881798   87.070045
 C  -36.661635  172.912659   87.783355
 N  -37.311904  174.025376   88.190810
 C  -36.781366  175.175257   87.874253
 N  -37.220783  171.750457   88.179962
 N  -30.128261  175.386560   83.644638
 C  -36.757124  170.451634   87.762291
 C  -37.382736  170.024061   86.414695
 C  -38.655959  169.218394   86.649805
 N  -38.376474  168.002184   87.385123
 C  -37.221039  168.026673   88.255842
 C  -37.068987  169.418463   88.856287
 S  -38.691314  166.564251   86.633219
 C  -37.393197  166.335467   85.375636
 O  -38.539839  165.532096   87.611934
 O  -39.937558  166.702160   85.944032
 C  -29.064366  176.088700   82.977974
 H  -35.506539  177.445121   87.129649
 H  -33.396043  177.558065   85.796002
 H  -33.129953  171.375580   84.498722
 H  -32.364853  171.355298   86.098173
 H  -34.130565  171.593700   85.969242
 H  -30.143700  174.378617   83.633357
 H  -37.316799  176.055656   88.210013
 H  -38.127723  171.833144   88.611389
 H  -35.675001  170.550118   87.629207
 H  -29.054740  175.858884   81.910246
 H  -29.243750  177.154238   83.115855
 H  -28.095071  175.826668   83.407781
 H  -37.605244  170.914430   85.826369
 H  -36.666441  169.422388   85.853238
 H  -36.279928  169.414505   89.607348
 H  -38.003802  169.683098   89.352004
 H  -39.376508  169.819444   87.216570
 H  -39.136214  168.927844   85.714434
 H  -37.389374  167.274515   89.028149
 H  -36.300469  167.760708   87.715456
 H  -37.631569  165.418570   84.853684
 H  -37.417898  167.174538   84.693554
 H  -36.437940  166.245180   85.874146
