84 
2x00_ligand_xtb.xyz
 O  -19.929040   12.247987  -11.582565
 C  -20.595052   11.342521  -11.171234
 O  -21.299014   11.411726  -10.040057
 C  -22.005830   10.198016   -9.765512
 C  -21.388595    9.142549  -10.705257
 C  -20.787954    9.977439  -11.831712
 C  -19.488355    9.445874  -12.419278
 C  -21.877694    9.844475   -8.302848
 C  -22.844705    9.211184   -7.640710
 C  -24.110887    8.762999   -8.320947
 C  -22.721198    8.842226   -6.170675
 C  -21.628966    9.682030   -5.457462
 C  -20.363286    9.576455   -6.330727
 C  -20.571544   10.246494   -7.681798
 C  -24.071592    8.953904   -5.522451
 C  -24.807224    7.978025   -4.998645
 C  -24.430991    6.529342   -4.928002
 C  -26.231372    8.272150   -4.570415
 O  -27.035347    7.656909   -5.571992
 C  -26.623071    7.768329   -3.169725
 C  -26.424691    8.795653   -2.056742
 C  -24.983213    8.918276   -1.571485
 C  -24.817789   10.012826   -0.509557
 C  -23.704599    9.488204    0.405684
 C  -24.041107    9.664914    1.881306
 O  -24.605514    7.716899   -0.921655
 C  -23.559705    7.995757   -0.010281
 C  -22.179710    7.742433   -0.580773
 C  -21.036775    7.957584    0.371244
 C  -22.007855    7.389664   -1.845787
 C  -20.696875    7.212632   -2.541620
 C  -20.797082    7.695819   -3.989903
 C  -21.273941    9.125372   -4.076745
 N  -21.270447    9.772580   -2.996759
 C  -21.716579   11.129124   -2.900658
 C  -22.689150   11.505124   -4.010083
 C  -22.037036   11.165537   -5.345559
 H  -21.516900   10.123237  -12.637503
 H  -23.055821   10.379658  -10.026389
 H  -20.603000    8.595418  -10.180538
 H  -22.133826    8.429397  -11.049335
 H  -19.073245   10.180523  -13.104564
 H  -18.759583    9.263452  -11.632285
 H  -19.662992    8.516903  -12.956858
 H  -19.752723    9.973075   -8.353780
 H  -20.543118   11.335037   -7.590292
 H  -24.671017    8.084336   -7.684954
 H  -24.752955    9.616706   -8.539068
 H  -23.891669    8.257000   -9.258656
 H  -22.403396    7.795569   -6.150311
 H  -24.503470    9.944097   -5.575801
 H  -19.516455   10.034691   -5.814306
 H  -20.128660    8.523434   -6.496213
 H  -21.139368   11.783071   -5.432463
 H  -22.698430   11.426812   -6.172793
 H  -23.638943    6.278127   -5.628118
 H  -24.102701    6.261159   -3.924138
 H  -25.306060    5.930112   -5.171174
 H  -26.397651    9.362373   -4.606833
 H  -27.962687    7.813305   -5.364555
 H  -27.686398    7.509762   -3.204118
 H  -26.076460    6.862862   -2.913995
 H  -26.765630    9.779623   -2.388453
 H  -27.029693    8.495216   -1.198527
 H  -24.308376    9.109223   -2.420425
 H  -24.575567   10.974990   -0.956070
 H  -25.747451   10.113775    0.053629
 H  -22.768438   10.006689    0.187341
 H  -23.232981    9.296883    2.509626
 H  -24.195215   10.718290    2.107671
 H  -24.948581    9.119655    2.132947
 H  -23.719495    7.331690    0.849883
 H  -20.395460    7.078544    0.396444
 H  -20.431658    8.804534    0.050254
 H  -21.397587    8.148584    1.378133
 H  -22.880946    7.228508   -2.459516
 H  -19.924089    7.778270   -2.024528
 H  -20.409417    6.155962   -2.542306
 H  -19.816227    7.616063   -4.465477
 H  -21.483749    7.046807   -4.533603
 H  -22.173590   11.240246   -1.911628
 H  -20.832885   11.778231   -2.926819
 H  -23.610922   10.938336   -3.870394
 H  -22.926724   12.569736   -3.968757
