32 
2x0y_ligand_ani-2x.xyz
 C   -3.057491    0.737403    2.344299
 N   -2.320953    0.333823    1.156930
 C   -2.904299    0.463810   -0.101991
 O   -4.032306    0.891881   -0.248796
 N   -2.126626    0.080892   -1.205110
 C   -2.766570    0.255227   -2.509877
 C   -0.810975   -0.414305   -1.173331
 O   -0.191693   -0.639445   -2.206935
 C   -0.331981   -0.589982    0.172361
 C   -1.051767   -0.180557    1.268569
 N   -0.339626   -0.340516    2.416326
 C    0.807161   -0.849267    2.009307
 N    0.868141   -1.043304    0.665665
 C    1.984527   -1.585606   -0.089432
 C    3.129039   -0.595923   -0.250138
 O    3.706676   -0.370768    1.020393
 C    2.667241    0.733284   -0.825555
 O    3.838772    1.535876   -0.920743
 H   -4.041960    1.071529    2.021365
 H   -2.530607    1.547349    2.856832
 H   -3.147115   -0.108686    3.031016
 H   -2.065969   -0.087046   -3.268028
 H   -3.689049   -0.325569   -2.552580
 H   -3.013039    1.306290   -2.669830
 H    1.654449   -1.097145    2.634243
 H    1.597691   -1.866317   -1.070475
 H    2.346636   -2.479643    0.423996
 H    3.870223   -1.038568   -0.933987
 H    4.250410    0.423861    0.912812
 H    2.179303    0.595166   -1.800786
 H    1.951438    1.178104   -0.119930
 H    3.570021    2.458255   -0.986690
