34 
2x2l_ligand_ani-2x.xyz
 C   -9.515955  -23.957277   11.190575
 C   -9.260206  -22.639064   11.500993
 C  -10.226622  -21.895512   12.188814
 O   -9.898021  -20.606234   12.456155
 C  -11.431015  -22.494698   12.550077
 C  -11.679716  -23.826132   12.232076
 C  -10.726705  -24.585275   11.545383
 C  -10.863293  -25.983287   11.154152
 C  -11.820369  -26.934409   11.286589
 C  -11.665958  -28.300216   10.771891
 C  -10.629871  -28.949936   10.085127
 C  -10.781350  -30.282898    9.717392
 C  -11.973867  -30.963742   10.046253
 C  -13.000242  -30.332508   10.725087
 C  -12.839305  -29.001985   11.083234
 C  -10.845509  -19.822738   13.148046
 N  -13.706953  -28.165064   11.754393
 C  -13.181334  -26.890180   11.927329
 N   -9.740635  -30.964542    9.080427
 O  -13.794001  -26.004862   12.497419
 H   -8.761607  -24.530144   10.656081
 H   -8.327226  -22.153592   11.228107
 H  -12.193085  -21.936534   13.083440
 H  -12.624005  -24.269954   12.523651
 H   -9.975540  -26.339262   10.628840
 H   -9.693564  -28.454290    9.827831
 H  -12.079019  -32.008250    9.761423
 H  -13.911992  -30.872610   10.969124
 H  -11.782571  -19.733756   12.582691
 H  -11.063790  -20.239825   14.140032
 H  -10.395771  -18.835429   13.261318
 H  -14.624625  -28.402723   12.099662
 H   -9.104113  -30.375184    8.561553
 H  -10.032366  -31.761991    8.533635
