32 
2x2m_ligand_ani-2x.xyz
 C  -19.453973   -7.237343   28.330109
 C  -18.271469   -6.546134   27.730536
 C  -17.871694   -8.822131   27.826389
 C  -17.301524   -7.598639   27.431380
 C  -16.014320   -7.598284   26.868207
 C  -15.348170   -8.804083   26.720208
 C  -15.941319  -10.012128   27.123421
 C  -17.210043  -10.032627   27.680929
 C  -18.074375   -5.217859   27.486215
 C  -18.899963   -4.069731   27.710922
 O  -20.523096   -6.808783   28.746915
 N  -19.130618   -8.583347   28.348755
 C  -18.576406   -2.744309   27.411540
 C  -19.680784   -1.957942   27.801340
 C  -20.644291   -2.785783   28.321641
 N  -20.160916   -4.060566   28.261811
 C  -17.313888   -2.222686   26.796823
 C  -21.990174   -2.471663   28.873519
 H  -19.770147   -9.273823   28.710780
 H  -17.114340   -4.962965   27.035736
 H  -17.670590  -10.966968   27.993563
 H  -15.528919   -6.678185   26.546399
 H  -14.351774   -8.817006   26.285828
 H  -15.397473  -10.944335   26.996383
 H  -20.634737   -4.902013   28.569223
 H  -19.756452   -0.880064   27.706062
 H  -17.141427   -2.640003   25.797645
 H  -17.369167   -1.135566   26.691635
 H  -16.434723   -2.447855   27.412144
 H  -22.078493   -2.777585   29.923472
 H  -22.167374   -1.393678   28.822188
 H  -22.786358   -2.970918   28.307279
