49 
2x38_ligand_ani-2x.xyz
 C   -3.212230   -1.316370   23.718670
 C   -3.903313   -2.656962   23.724779
 C   -3.507491   -3.663336   24.609242
 C   -4.165092   -4.890113   24.658712
 C   -5.239966   -5.135933   23.812523
 C   -5.647461   -4.150267   22.918248
 C   -4.990251   -2.927019   22.881486
 N   -5.447233   -1.922957   21.944304
 C   -4.857464   -1.978064   20.661271
 O   -3.995566   -2.809673   20.447311
 C   -5.370366   -0.977728   19.706602
 C   -4.925843   -0.916596   18.361758
 C   -3.912796   -1.869808   17.786233
 C   -5.453941    0.066412   17.544673
 C   -6.407203    0.987575   18.013363
 C   -6.843300    0.927982   19.313297
 C   -6.331891   -0.059747   20.177875
 N   -6.819443   -0.063037   21.470323
 C   -6.380196   -0.952235   22.290444
 C   -6.958327   -1.015906   23.688459
 N   -7.176563    0.297965   24.274525
 C   -8.125604    1.231680   23.921770
 N   -8.153361    2.284892   24.689198
 C   -7.155716    2.036943   25.614171
 C   -6.544467    0.812304   25.380887
 N   -5.558622    0.266922   26.097254
 C   -5.197701    1.054676   27.112151
 N   -5.680613    2.251631   27.459673
 C   -6.671361    2.768337   26.715178
 N   -7.171055    3.982427   27.027216
 H   -3.877893   -0.532377   24.099723
 H   -2.318658   -1.342016   24.348358
 H   -2.916205   -1.039093   22.701797
 H   -2.664730   -3.472082   25.271442
 H   -3.834561   -5.653268   25.359779
 H   -5.757954   -6.090695   23.842959
 H   -6.481045   -4.315867   22.239537
 H   -2.965556   -1.808813   18.327146
 H   -4.253814   -2.904186   17.873860
 H   -3.734575   -1.643181   16.731223
 H   -5.121891    0.127253   16.511146
 H   -6.798139    1.746896   17.340076
 H   -7.578582    1.618856   19.714498
 H   -6.308591   -1.574160   24.360599
 H   -7.915198   -1.545934   23.639013
 H   -8.736958    1.064391   23.041613
 H   -4.400583    0.675404   27.748379
 H   -7.982370    4.321008   26.534062
 H   -6.874063    4.430665   27.878796
