34 
2x3t_ligand_aiqm1.xyz
 N   -1.031342    3.680915    0.281070
 C   -0.456622    2.611256    0.867589
 O    0.419530    2.663600    1.707787
 O   -0.944779    1.462942    0.359978
 C   -0.561903    0.220162    0.998881
 O   -1.659758   -0.608050    0.924544
 C   -2.053134   -0.977446   -0.420094
 C   -3.232940   -1.907093   -0.242776
 O   -4.297554   -1.259903    0.426243
 C   -0.880501   -1.628103   -1.135312
 O   -1.303574   -1.946204   -2.443520
 C    0.327632   -0.697897   -1.150777
 O    1.346323   -1.339809   -1.893125
 C    0.664665   -0.385706    0.305877
 N    1.823236    0.470403    0.482168
 C    3.081555   -0.024766    0.399883
 O    3.312738   -1.164564    0.001605
 C    4.190932    0.907502    0.821216
 H   -1.821783    3.563171   -0.323948
 H   -0.796486    4.589593    0.633762
 H   -0.351479    0.411452    2.050138
 H   -2.371001   -0.084146   -0.970973
 H   -2.909986   -2.803311    0.302595
 H   -3.599984   -2.206555   -1.221523
 H   -3.951571   -0.941895    1.263623
 H   -0.595262   -2.544180   -0.594008
 H   -0.509793   -2.171381   -2.937308
 H    0.062060    0.230074   -1.674130
 H    2.117158   -1.487903   -1.324275
 H    0.857869   -1.342201    0.800249
 H    1.680950    1.365478    0.930815
 H    4.927148    0.951756    0.021694
 H    3.836274    1.910446    1.055990
 H    4.681582    0.482564    1.695964
