42 
2x6k_ligand_ani-2x.xyz
 N   20.792462   38.048728    3.681837
 C   22.001198   37.951649    3.118435
 C   23.022715   37.104975    3.560507
 C   22.806468   36.287096    4.664254
 C   21.559244   36.370564    5.265374
 C   20.626312   37.262023    4.719649
 O   19.450595   37.234708    5.413928
 C   19.613483   36.317577    6.417441
 C   20.877962   35.758646    6.384477
 N   21.302507   34.840657    7.261532
 C   18.717994   35.915395    7.438185
 N   17.467497   36.422017    7.623534
 C   16.646840   36.986019    6.550739
 C   15.759099   38.074817    7.133917
 O   14.960498   37.565601    8.181669
 C   15.765857   37.082311    9.235506
 C   16.688040   35.966201    8.766852
 N   19.159394   35.009514    8.309517
 C   20.395649   34.513504    8.175079
 C   20.790205   33.484846    9.168812
 C   19.858995   32.998443   10.085211
 C   20.245590   32.035038   11.009407
 C   21.546939   31.552555   11.029797
 C   22.473801   32.041344   10.108475
 O   23.737334   31.536774   10.164809
 C   22.097728   33.004762    9.177583
 H   22.170837   38.592595    2.253509
 H   23.975339   37.092346    3.039870
 H   23.584578   35.620603    5.026857
 H   16.012778   36.202150    6.108855
 H   17.282270   37.398189    5.768547
 H   15.074211   38.458828    6.371472
 H   16.380284   38.907454    7.498727
 H   15.085791   36.711789   10.008658
 H   16.361866   37.903265    9.664722
 H   17.369615   35.670498    9.568721
 H   16.090988   35.083070    8.491606
 H   18.839701   33.371517   10.066920
 H   19.521151   31.654636   11.724716
 H   21.865307   30.800881   11.745085
 H   24.272741   31.953640    9.477623
 H   22.813234   33.387574    8.453987
