42 
2x6k_ligand_xtb.xyz
 N   20.704588   37.924306    3.555838
 C   21.945608   37.927324    3.095176
 C   22.995291   37.197276    3.648584
 C   22.770304   36.400505    4.758105
 C   21.477913   36.379357    5.260887
 C   20.497149   37.163526    4.610387
 O   19.287163   37.051801    5.198781
 C   19.457648   36.186009    6.251509
 C   20.783569   35.738876    6.342350
 N   21.217976   34.894187    7.274232
 C   18.536311   35.706793    7.203830
 N   17.214418   35.980363    7.219358
 C   16.608739   37.073032    6.492369
 C   16.319799   38.221937    7.469537
 O   15.504601   37.790102    8.534553
 C   16.105634   36.730534    9.246513
 C   16.391663   35.538742    8.325686
 N   19.009093   34.867362    8.128663
 C   20.288407   34.497100    8.134808
 C   20.704575   33.571813    9.193663
 C   19.811474   33.160899   10.179345
 C   20.229585   32.288338   11.167025
 C   21.528671   31.816201   11.188178
 C   22.427233   32.224113   10.205363
 O   23.698506   31.741997   10.254253
 C   22.013678   33.099356    9.213105
 H   22.105009   38.554665    2.229294
 H   23.977350   37.259081    3.207124
 H   23.554123   35.819360    5.218625
 H   15.662643   36.716174    6.070467
 H   17.255802   37.412239    5.687446
 H   15.773970   39.024880    6.972322
 H   17.272080   38.615411    7.859134
 H   15.401984   36.455553   10.033293
 H   17.049107   37.068913    9.701820
 H   16.922872   34.752936    8.859347
 H   15.450447   35.153415    7.921269
 H   18.800752   33.533771   10.158606
 H   19.537078   31.969831   11.931981
 H   21.868092   31.134899   11.952070
 H   24.208810   32.103888    9.519465
 H   22.695384   33.427931    8.442039
