92 
2x6x_ligand_ani-2x.xyz
 C    1.871448    1.410097    1.511837
 C    0.839996    1.949173    2.507186
 C    0.812106    1.096285    3.778358
 C    2.209447    0.523518    4.029964
 C    2.614529   -0.400170    2.878739
 C    4.122132   -0.495300    2.682643
 O    1.171594    3.280221    2.889346
 O    0.387186    1.825345    4.911242
 O    2.228686   -0.216594    5.227071
 O    1.979892    0.007734    1.655390
 C    0.577508   -1.309554   -2.557265
 C    1.682399   -1.996477   -3.377360
 C    2.992254   -1.994029   -2.595993
 C    3.349481   -0.591978   -2.131916
 C    2.176907   -0.044270   -1.328184
 C    2.405798    1.364980   -0.788805
 O    1.339335   -3.301440   -3.780292
 O    4.042995   -2.473908   -3.407551
 O    4.494977   -0.613936   -1.304671
 O    1.000722   -0.022508   -2.161472
 O    1.453420    1.716885    0.214421
 C   -0.819744   -2.803680    1.644008
 C   -0.977131   -1.394504    1.051620
 C   -1.751228   -1.480786   -0.285391
 C   -1.045744   -2.496128   -1.189186
 C   -0.993522   -3.849381   -0.491857
 C   -0.313866   -4.956436   -1.296780
 O   -2.105454   -3.207115    2.065654
 O   -1.592149   -0.552658    2.016806
 O   -1.784964   -0.281539   -1.038332
 O    0.287720   -2.084194   -1.426592
 O   -0.265217   -3.720754    0.735395
 O    1.087066   -4.787610   -1.417022
 C   -2.191535    0.877787   -0.384345
 C   -2.269107    2.029185   -1.389805
 C   -2.747754    3.299227   -0.655539
 C   -3.997254    3.014830    0.183739
 C   -3.821048    1.772665    1.039026
 C   -5.084871    1.335140    1.772130
 C   -0.770520    2.872140   -3.151681
 C    0.582992    2.725872   -3.810238
 N   -0.954080    2.181445   -2.002037
 O   -3.117888    4.354992   -1.503378
 O   -4.278947    4.113287    1.015454
 O   -3.459492    0.684440    0.189163
 O   -4.884942    0.075208    2.376299
 O   -1.640633    3.600900   -3.633124
 H    2.853570    1.883596    1.704257
 H   -0.152135    1.911826    2.039983
 H    0.109102    0.268776    3.631537
 H    2.923234    1.367323    4.098707
 H    2.202439   -1.394694    3.095590
 H    4.596157   -0.906630    3.579434
 H    4.342611   -1.143965    1.830521
 H    4.555419    0.491511    2.481857
 H    0.964688    3.862493    2.148663
 H    0.651488    2.744537    4.749254
 H    1.722941    0.315656    5.860762
 H   -0.324104   -1.190028   -3.170231
 H    1.833349   -1.421200   -4.299510
 H    2.872861   -2.632591   -1.703121
 H    3.512793    0.043355   -3.019163
 H    1.999522   -0.704545   -0.473663
 H    2.302319    2.091452   -1.604520
 H    3.423250    1.445201   -0.382253
 H    1.292078   -3.865082   -2.983343
 H    3.713312   -3.286534   -3.819674
 H    5.188865   -1.052940   -1.816386
 H   -0.134833   -2.768340    2.504547
 H    0.015184   -0.981464    0.860913
 H   -2.775485   -1.829157   -0.089549
 H   -1.596952   -2.587548   -2.139058
 H   -2.023304   -4.172768   -0.280797
 H   -0.723247   -4.972161   -2.313135
 H   -0.530760   -5.924233   -0.827102
 H   -2.030724   -4.100673    2.426910
 H   -2.402805   -0.992336    2.316660
 H    1.378112   -4.436143   -0.561044
 H   -1.457894    1.137846    0.400047
 H   -3.015999    1.773701   -2.155072
 H   -1.937904    3.627735    0.023508
 H   -4.822157    2.822888   -0.524450
 H   -3.023134    1.942919    1.780015
 H   -5.325026    2.052400    2.561388
 H   -5.932593    1.310254    1.067760
 H    0.935134    1.692509   -3.765467
 H    0.496111    3.059445   -4.845852
 H    1.317990    3.367053   -3.309058
 H   -0.255964    1.479808   -1.760665
 H   -2.645512    4.255622   -2.356664
 H   -4.333068    4.882587    0.430610
 H   -4.602034   -0.503071    1.653176
