24 
2x7x_ligand_aiqm1.xyz
 C   -2.395105   -0.514117   -0.098438
 C   -0.957187   -0.146147    0.190520
 C   -0.526226    1.264182   -0.197440
 C    0.977819    1.103418   -0.422904
 C    1.132069   -0.354693   -0.855340
 C    2.246823   -1.088911   -0.140448
 O   -2.663432   -1.815609    0.390248
 O   -0.681225   -0.303305    1.571277
 O   -0.883971    2.262695    0.722498
 O    1.491958    1.938967   -1.442187
 O   -0.124276   -1.011037   -0.556124
 O    2.161985   -0.962052    1.267272
 H   -2.588950   -0.436002   -1.171413
 H   -3.050494    0.169720    0.436420
 H   -0.999060    1.520025   -1.147336
 H    1.498653    1.271104    0.523000
 H    1.282303   -0.399781   -1.937492
 H    3.202816   -0.662963   -0.445802
 H    2.219798   -2.144424   -0.437593
 H   -2.139462   -2.426603   -0.134278
 H   -1.228162   -1.028013    1.897610
 H   -0.680227    1.928587    1.601456
 H    1.477370    2.839537   -1.113715
 H    1.226084   -1.004680    1.500212
