24 
2x7x_ligand_xtb.xyz
 C   -2.400491   -0.483169   -0.134421
 C   -0.929123   -0.170483    0.166087
 C   -0.496388    1.280093   -0.123539
 C    0.996487    1.122588   -0.504261
 C    1.142571   -0.363238   -0.869875
 C    2.223649   -1.070517   -0.037272
 O   -2.701257   -1.777178    0.321834
 O   -0.677166   -0.447558    1.524870
 O   -0.744414    2.151412    0.932114
 O    1.374408    1.909047   -1.601140
 O   -0.131657   -0.976838   -0.664063
 O    2.152833   -0.769116    1.328600
 H   -2.586642   -0.373045   -1.207407
 H   -3.036600    0.206260    0.424467
 H   -1.044672    1.658173   -0.993175
 H    1.615678    1.353109    0.375813
 H    1.375013   -0.460811   -1.934365
 H    3.208476   -0.744232   -0.377829
 H    2.126288   -2.152862   -0.205884
 H   -2.185125   -2.402814   -0.202347
 H   -1.269497   -1.174340    1.779908
 H   -0.509376    1.695944    1.753629
 H    1.270289    2.837649   -1.363376
 H    1.226616   -0.848174    1.611631
