40 
2xb8_ligand_dft.xyz
 C    6.078315    0.664339    0.137164
 O    5.261650   -0.061348   -0.753769
 C    4.014105   -0.400425   -0.338273
 C    3.478669   -0.087360    0.909460
 C    2.177103   -0.485116    1.218194
 C    3.239522   -1.116362   -1.260426
 C    1.951396   -1.499210   -0.933145
 C    1.388612   -1.183203    0.310819
 C   -0.036742   -1.559136    0.633557
 C   -1.087265   -0.721317   -0.110078
 C   -2.473597   -1.321000    0.068481
 O   -2.696901   -2.333450    0.699863
 C   -3.627896   -0.580744   -0.582419
 O   -4.849880   -1.202838   -0.308810
 C   -3.636632    0.868562   -0.084075
 O   -4.650452    1.601227   -0.728443
 C   -2.298944    1.522867   -0.384165
 C   -1.140723    0.774723    0.317546
 C    0.137639    1.538229   -0.031024
 O    0.517094    1.406226   -1.301310
 O    0.689380    2.259474    0.769664
 O   -1.303864    0.824948    1.712785
 H    6.268845    0.101671    1.060010
 H    7.022083    0.828934   -0.383881
 H    5.631536    1.633933    0.392935
 H    4.050454    0.464441    1.646330
 H    1.763567   -0.219687    2.187341
 H    3.675821   -1.361754   -2.223223
 H    1.362737   -2.053226   -1.661183
 H   -0.213717   -2.609726    0.381896
 H   -0.223540   -1.463256    1.706072
 H   -0.881308   -0.731086   -1.189991
 H   -3.457070   -0.555087   -1.671273
 H   -4.635828   -1.957091    0.267723
 H   -3.796589    0.850156    1.004193
 H   -5.468939    1.103626   -0.592920
 H   -2.138419    1.546169   -1.468245
 H   -2.315292    2.557500   -0.027005
 H    1.350813    1.892601   -1.406811
 H   -0.712749    1.528881    2.028480
