40 
2xb9_ligand_aiqm1.xyz
 C    5.429055   -2.390785   -1.001533
 O    4.563217   -2.375545    0.120032
 C    3.595813   -1.417006    0.135704
 C    3.382909   -0.484318   -0.877735
 C    2.344594    0.442893   -0.747446
 C    2.773060   -1.404124    1.265103
 C    1.745940   -0.480166    1.372155
 C    1.499480    0.456198    0.358634
 C    0.369069    1.445004    0.471192
 C   -1.030290    0.816039    0.422268
 C   -2.078565    1.810971    0.905137
 O   -1.840122    2.946286    1.248874
 C   -3.501375    1.292849    0.923687
 O   -4.405704    2.278497    1.351661
 C   -3.890981    0.795594   -0.464551
 O   -5.180530    0.214002   -0.424800
 C   -2.902613   -0.259797   -0.919758
 C   -1.472521    0.311165   -0.972692
 C   -0.559825   -0.788811   -1.504382
 O   -0.442748   -1.824040   -0.671639
 O   -0.050789   -0.738739   -2.596121
 O   -1.427464    1.396096   -1.872154
 H    5.978550   -1.450984   -1.090558
 H    6.127626   -3.203862   -0.827790
 H    4.877093   -2.576139   -1.926212
 H    4.002987   -0.458538   -1.762438
 H    2.187845    1.163591   -1.541680
 H    2.956687   -2.124134    2.051148
 H    1.128655   -0.489789    2.264956
 H    0.452007    1.983123    1.417225
 H    0.440810    2.198895   -0.311551
 H   -1.088969   -0.037443    1.105085
 H   -3.537341    0.440617    1.612580
 H   -3.880693    3.075699    1.495196
 H   -3.873228    1.648794   -1.152645
 H   -5.770814    0.859976   -0.026130
 H   -2.940250   -1.109120   -0.230556
 H   -3.197002   -0.615515   -1.910786
 H    0.180846   -2.439219   -1.079938
 H   -0.964019    1.091686   -2.661642
