21 
2xdk_ligand_xtb.xyz
 C    6.025816    4.096187    9.397763
 C    5.910041    4.271900    8.025976
 N    6.161888    3.313793    7.150208
 C    6.559293    2.139531    7.600784
 C    6.738123    1.852694    8.954483
 C    7.193849    0.541363    9.429237
 N    6.831906    0.204051   10.663615
 C    7.973052   -0.314256    8.646926
 C    8.324176   -1.525932    9.220158
 N    7.959418   -1.875894   10.439059
 C    7.230628   -0.983183   11.117870
 N    6.895597   -1.301826   12.385667
 C    6.447353    2.866327    9.867526
 H    5.795971    4.902770   10.076915
 H    5.597297    5.218123    7.604096
 H    6.724898    1.387050    6.840788
 H    8.299345   -0.044979    7.657366
 H    8.921049   -2.253642    8.684522
 H    6.230981   -0.722531   12.865071
 H    7.064706   -2.240473   12.698190
 H    6.562513    2.668928   10.922480
