33 
2xdl_ligand_ani-2x.xyz
 C   64.917389   33.085636   27.775353
 C   66.076168   33.550498   27.119145
 C   65.940451   34.336402   25.979893
 C   64.672912   34.655631   25.477166
 C   63.540201   34.152534   26.104148
 C   63.665827   33.387351   27.258821
 O   65.100375   32.341158   28.896650
 C   65.176937   38.646786   25.164182
 C   65.922698   37.327131   24.974446
 C   65.256578   37.033933   22.594973
 C   66.581024   37.611238   22.121744
 C   64.474628   35.443219   24.212282
 O   63.561178   35.165030   23.447562
 O   67.255785   33.196026   27.683485
 N   65.351926   36.468520   23.939595
 C   68.426780   33.628586   27.027819
 H   66.817041   34.706046   25.454385
 H   62.563133   34.363175   25.682134
 H   62.775296   33.009489   27.759939
 H   64.234082   32.088260   29.240967
 H   65.220113   39.274584   24.268419
 H   64.124622   38.473474   25.412002
 H   65.628271   39.211620   25.986726
 H   65.916830   36.778380   25.917296
 H   66.972730   37.525219   24.726079
 H   64.938303   36.220917   21.939828
 H   64.459987   37.793375   22.547868
 H   66.852270   38.519674   22.669750
 H   67.384059   36.877738   22.252457
 H   66.524822   37.873007   21.060322
 H   68.485423   33.221869   26.009900
 H   68.476033   34.724755   26.983815
 H   69.262631   33.250639   27.617850
