33 
2xdl_ligand_aiqm1.xyz
 C   64.908404   33.216159   27.823333
 C   66.084150   33.582680   27.143698
 C   65.985878   34.316045   25.971107
 C   64.732309   34.676369   25.450778
 C   63.579732   34.275302   26.111352
 C   63.670341   33.563810   27.303820
 O   65.064835   32.519647   28.982301
 C   65.041601   38.499033   25.225025
 C   65.937251   37.292082   24.952739
 C   65.298414   37.025105   22.543200
 C   66.548794   37.770553   22.103935
 C   64.586861   35.391805   24.142676
 O   63.755299   35.014042   23.329089
 O   67.242627   33.175785   27.721139
 N   65.433769   36.438947   23.879592
 C   68.438442   33.458024   27.017414
 H   66.884990   34.597950   25.440694
 H   62.616481   34.512845   25.686530
 H   62.770065   33.257265   27.827002
 H   64.192837   32.313293   29.326859
 H   64.959779   39.145340   24.350755
 H   64.038967   38.176248   25.508414
 H   65.452807   39.093262   26.042497
 H   66.013293   36.691833   25.854883
 H   66.947565   37.612608   24.691950
 H   65.091004   36.197829   21.868380
 H   64.421711   37.682072   22.507220
 H   66.731931   38.653859   22.716292
 H   67.425168   37.123517   22.163443
 H   66.434639   38.099802   21.070813
 H   68.425446   33.015204   26.019078
 H   68.601488   34.535705   26.930065
 H   69.239620   33.017881   27.600927
