51 
2xdw_ligand_ani-2x.xyz
 C   -3.017497   -1.205955    0.617054
 C   -4.036218   -0.453268    0.035805
 C   -4.034493   -0.222651   -1.337439
 C   -2.996955   -0.728050   -2.120390
 C   -1.976835   -1.474670   -1.535706
 C   -1.997795   -1.752218   -0.166687
 C   -0.902356   -2.578621    0.453981
 O    0.287754   -1.762123    0.534799
 C    1.434479   -2.282006    0.021186
 O    1.519464   -3.349875   -0.547568
 N    2.466308   -1.432220    0.251759
 C    2.227455   -0.031902    0.571485
 C    1.256874    0.560975   -0.472588
 O    1.387735    0.239414   -1.643874
 C    3.626670    0.589511    0.446711
 C    4.296102   -0.262504   -0.639544
 C    3.761234   -1.674515   -0.372438
 C   -0.890619    1.416530    2.131743
 N    0.275379    1.418765   -0.051566
 O   -0.576982    0.093919    2.491763
 C    0.194288    2.066045    1.260788
 C   -0.005204    3.578431    1.098191
 C   -0.943637    3.222603   -1.201422
 C   -0.812215    1.722392   -0.987026
 C   -1.147108    3.923786    0.140914
 H   -3.007326   -1.364009    1.694662
 H   -4.833767   -0.047263    0.653147
 H   -4.831775    0.357434   -1.794756
 H   -2.982226   -0.534539   -3.191008
 H   -1.153129   -1.835032   -2.149747
 H   -1.154199   -2.864095    1.481391
 H   -0.660537   -3.474418   -0.123976
 H    1.819943    0.039913    1.583152
 H    3.599303    1.654994    0.194152
 H    4.151185    0.484741    1.403094
 H    3.947204    0.068803   -1.621234
 H    5.387812   -0.205915   -0.612347
 H    4.406676   -2.254357    0.299999
 H    3.617342   -2.262282   -1.283386
 H   -1.865743    1.466971    1.615934
 H   -0.983060    1.979732    3.067975
 H   -0.385767   -0.403706    1.678773
 H    1.155612    1.905726    1.759452
 H    0.928572    4.004829    0.713284
 H   -0.172682    4.022913    2.087516
 H   -1.780389    3.422875   -1.881671
 H   -0.032142    3.596790   -1.685351
 H   -0.581705    1.196303   -1.915901
 H   -1.759663    1.323609   -0.595771
 H   -2.109140    3.615341    0.576685
 H   -1.202865    5.009471    0.003654
