31 
2xf0_ligand_ani-2x.xyz
 C   15.476801   -4.072374    8.621278
 C   16.467334   -4.977646    8.981905
 C   17.381406   -5.426515    8.032841
 C   17.304387   -4.954153    6.726094
 C   16.321336   -4.038632    6.368636
 C   10.471292   -5.598207    9.466889
 N    9.431963   -6.174961   10.051004
 N    8.437838   -5.289020    9.908664
 C    8.801909   -4.167268    9.255180
 C   10.138115   -4.323053    8.942099
 C   10.977004   -3.355454    8.226241
 C   12.297547   -3.605383    7.986267
 C   12.435118   -1.500341    6.869370
 N   13.285301   -0.740201    6.194071
 C   14.454736   -1.418911    6.227965
 C   14.365193   -2.604431    6.926996
 C   15.384971   -3.594707    7.308491
 N   13.041429   -2.651451    7.337431
 C   11.052596   -1.316112    7.165879
 N   10.345061   -2.194249    7.820279
 H   14.764039   -3.716799    9.360518
 H   16.519420   -5.335526   10.006373
 H   18.153126   -6.139099    8.311953
 H   18.016900   -5.297828    5.981183
 H   16.268970   -3.678006    5.343840
 H   11.413875   -6.130213    9.451062
 H    7.529349   -5.511031   10.281385
 H    8.116428   -3.353565    9.057392
 H   12.807743   -4.518516    8.259339
 H   10.570681   -0.403268    6.827130
 H   15.347130   -1.022078    5.760245
