64 
2xg3_ligand_ani-2x.xyz
 O    4.955104    1.016903    1.514952
 C    4.962094    0.407660    0.455934
 N    3.800561    0.078862   -0.208550
 C    6.240434   -0.021310   -0.197599
 C    6.337411   -0.339483   -1.553979
 C    7.378616   -0.073301    0.606473
 C    8.597556   -0.470824    0.070729
 C    8.688735   -0.802461   -1.279115
 C    7.559400   -0.729366   -2.091371
 C    0.096015   -0.365879    0.362839
 C    1.449636   -0.516518   -0.317190
 C    2.521429    0.227065    0.476314
 C    2.120908    1.708705    0.603591
 C    0.718587    1.792210    1.207281
 C    0.126354    3.193016    1.225522
 O    1.829921   -1.875307   -0.421714
 O    2.100520    2.328372   -0.662790
 O   -0.200110    1.008545    0.450173
 O   -1.155948    3.182202    1.813319
 C   -5.030981   -1.542969   -0.173930
 C   -4.537283   -0.070552   -0.157462
 C   -3.087733    0.014190   -0.639611
 C   -2.192038   -0.960239    0.131410
 C   -2.772989   -2.365254   -0.003577
 C   -2.028436   -3.373640    0.863039
 C   -6.616383    1.130580   -0.958156
 C   -7.031711    2.319686   -1.797745
 N   -5.291382    0.833234   -1.023404
 O   -6.203213   -1.739152    0.516806
 O   -2.685398    1.366549   -0.521624
 O   -0.885162   -0.975864   -0.427800
 O   -4.105347   -2.375550    0.479547
 O   -2.088348   -2.991504    2.217451
 O   -7.432423    0.489690   -0.298804
 H    3.849217   -0.746536   -0.797502
 H    5.468211   -0.261040   -2.204542
 H    7.284216    0.204599    1.652652
 H    9.479101   -0.518711    0.704967
 H    9.641772   -1.112286   -1.699791
 H    7.626634   -0.983185   -3.146544
 H    0.099090   -0.817699    1.370918
 H    1.364695   -0.050487   -1.309540
 H    2.597919   -0.192150    1.489958
 H    2.831075    2.210646    1.276592
 H    0.742951    1.400170    2.237554
 H    0.107110    3.589923    0.200497
 H    0.749171    3.855707    1.837001
 H    1.137093   -2.299101   -0.945842
 H    2.939717    2.097733   -1.087018
 H   -1.712788    2.581077    1.293788
 H   -5.129311   -1.861285   -1.236868
 H   -4.593869    0.263332    0.889670
 H   -3.050890   -0.286234   -1.701240
 H   -2.169961   -0.678934    1.193973
 H   -2.743317   -2.673009   -1.062547
 H   -0.970827   -3.418442    0.586377
 H   -2.468336   -4.370355    0.705219
 H   -8.080056    2.540281   -1.596420
 H   -6.915738    2.095798   -2.863704
 H   -6.426067    3.204208   -1.571784
 H   -4.700945    1.537778   -1.449794
 H   -6.842791   -1.048687    0.232061
 H   -1.717574    1.377533   -0.600584
 H   -3.030425   -2.890689    2.414673
