12 
2xgm_ligand_ani-2x.xyz
 O   29.958959    6.976247    0.790161
 C   29.909054    7.290480    1.950155
 C   29.779262    6.251540    3.078550
 O   29.719908    5.080291    2.832944
 C   29.727285    6.758827    4.530486
 O   29.630091    6.012481    5.468836
 N   29.802345    8.136113    4.667948
 C   29.919465    9.112725    3.677551
 O   29.976074   10.290282    3.924138
 N   29.964094    8.608157    2.376843
 H   29.769832    8.493086    5.614951
 H   30.049232    9.309572    1.651536
