12 
2xgm_ligand_xtb.xyz
 O   29.960672    6.993442    0.800328
 C   29.909064    7.294602    1.960014
 C   29.778749    6.250315    3.078205
 O   29.717799    5.081224    2.833087
 C   29.728908    6.766510    4.523142
 O   29.632670    6.032351    5.466461
 N   29.802654    8.133556    4.660511
 C   29.917645    9.096432    3.674020
 O   29.974324   10.267402    3.919483
 N   29.963459    8.602902    2.382625
 H   29.770237    8.492967    5.611507
 H   30.049421    9.308098    1.654717
