43 
2xhx_ligand_xtb.xyz
 C   14.201206    0.239100   10.664994
 C   14.130031   -0.523069    9.335027
 C   12.739639   -0.356226    8.706513
 C   14.388225   -2.001222    9.592356
 C   15.448195   -2.675042    9.004067
 C   15.700042   -4.023294    9.232656
 C   16.879698   -4.709199    8.627510
 O   17.703581   -5.303323    9.301234
 N   16.990558   -4.625677    7.281164
 C   18.056045   -5.351107    6.600561
 C   17.500267   -5.593085    5.234838
 C   18.023543   -6.333116    4.193658
 C   17.308586   -6.404674    3.006608
 C   16.096369   -5.748175    2.869126
 C   15.571256   -5.003595    3.915789
 C   16.283477   -4.933761    5.095830
 C   15.952371   -4.196102    6.359347
 C   14.882486   -4.729299   10.101004
 C   13.812077   -4.088163   10.689582
 C   15.155653    0.096886    8.381004
 C   13.554342   -2.744402   10.444903
 O   12.482851   -2.153601   11.049535
 H   15.177669    0.100709   11.124809
 H   14.045949    1.302003   10.493671
 H   13.439356   -0.112541   11.352502
 H   12.550662    0.694080    8.496121
 H   12.678766   -0.912701    7.772957
 H   11.967142   -0.716077    9.377556
 H   16.128228   -2.140688    8.362598
 H   18.284066   -6.269567    7.151419
 H   18.971995   -4.746826    6.567688
 H   18.967620   -6.845409    4.301350
 H   17.701135   -6.979647    2.181293
 H   15.553548   -5.816465    1.938266
 H   14.626594   -4.491454    3.809176
 H   15.994065   -3.111379    6.190144
 H   14.957117   -4.439617    6.744955
 H   15.085145   -5.768691   10.307512
 H   13.160114   -4.632747   11.361488
 H   16.162803    0.030973    8.785965
 H   15.127724   -0.381464    7.404191
 H   14.920301    1.150145    8.242408
 H   12.040303   -2.800192   11.613222
