43 
2xhx_ligand_dft.xyz
 C   -4.583324   -1.168092   -1.308236
 C   -3.308486   -1.457430   -0.491063
 C   -3.651702   -2.321053    0.739421
 C   -2.663986   -0.138167   -0.038896
 C   -1.372271    0.218625   -0.423896
 C   -0.756983    1.410042   -0.034417
 C    0.609122    1.814412   -0.496791
 O    0.846758    2.974282   -0.812541
 N    1.583274    0.853972   -0.552780
 C    2.936419    1.278404   -0.928690
 C    3.808631    0.221707   -0.313392
 C    5.194597    0.128215   -0.309349
 C    5.792715   -0.948173    0.342416
 C    5.012847   -1.914655    0.978370
 C    3.622940   -1.818930    0.969555
 C    3.033185   -0.742457    0.319755
 C    1.569531   -0.433313    0.154002
 C   -1.470035    2.309385    0.751468
 C   -2.750700    1.985768    1.168193
 C   -2.362667   -2.278079   -1.381809
 C   -3.342612    0.781307    0.785756
 O   -4.604910    0.480663    1.204619
 H   -4.343411   -0.571660   -2.195511
 H   -5.032807   -2.110226   -1.643698
 H   -5.325003   -0.626535   -0.718367
 H   -4.095325   -3.270082    0.415903
 H   -2.746366   -2.548709    1.313697
 H   -4.361545   -1.818996    1.399142
 H   -0.824411   -0.443953   -1.081640
 H    3.130394    2.282438   -0.536908
 H    3.040807    1.331406   -2.019828
 H    5.803674    0.880599   -0.802709
 H    6.875018   -1.034981    0.356763
 H    5.492551   -2.747505    1.483636
 H    3.015859   -2.573209    1.462916
 H    1.074017   -1.217953   -0.432241
 H    1.038298   -0.353012    1.109090
 H   -1.018061    3.256869    1.024781
 H   -3.308559    2.679112    1.795032
 H   -2.097143   -1.745590   -2.301838
 H   -1.439453   -2.552508   -0.858001
 H   -2.862305   -3.207899   -1.673303
 H   -4.937258    1.209934    1.741554
