12 
2xix_ligand_aiqm1.xyz
 N  -21.867647  -35.405279   -1.253474
 N  -22.294217  -36.587886   -0.686794
 N  -22.973792  -37.409795    1.459706
 C  -21.800694  -34.622750   -0.193822
 N  -22.141262  -35.202429    0.996523
 N  -21.454525  -33.289888   -0.273236
 C  -22.468513  -36.427776    0.630704
 H  -22.578261  -37.351529   -1.271268
 H  -22.549970  -38.315511    1.331844
 H  -22.923816  -37.117382    2.424022
 H  -21.078866  -32.932811    0.589850
 H  -20.871437  -33.079965   -1.067056
