19 
2xiy_ligand_ani-2x.xyz
 N  -21.877195  -35.276612   -1.575636
 C  -21.811879  -34.180098   -0.874359
 N  -22.221755  -34.330385    0.423074
 C  -22.597921  -35.652452    0.573003
 C  -23.097090  -36.387086    1.647806
 C  -23.363885  -37.728752    1.420013
 C  -23.140354  -38.318993    0.161752
 C  -22.644730  -37.581995   -0.901541
 C  -22.370761  -36.227677   -0.690151
 C  -21.364416  -32.834328   -1.370181
 O  -20.844099  -32.031045   -0.327894
 H  -22.226268  -33.599137    1.117169
 H  -20.660541  -32.978584   -2.199798
 H  -22.225728  -32.285076   -1.765026
 H  -23.272339  -35.937026    2.621783
 H  -23.754120  -38.338789    2.230392
 H  -23.361316  -39.374055    0.021528
 H  -22.469680  -38.028552   -1.876374
 H  -19.974923  -32.381356   -0.093561
