19 
2xj0_ligand_xtb.xyz
 O  -20.672955  -30.594058    0.622854
 C  -21.070343  -31.581467    1.183076
 O  -21.260993  -31.572669    2.517172
 C  -21.362091  -32.829975    0.450972
 C  -21.810477  -33.979610    0.973613
 C  -22.091269  -35.191660    0.240861
 C  -21.935353  -35.350393   -1.144823
 N  -22.203301  -36.472541   -1.769390
 C  -22.644278  -37.497340   -1.026525
 N  -22.918793  -38.644997   -1.662117
 N  -22.831946  -37.465220    0.299407
 C  -22.558479  -36.333974    0.906691
 H  -21.579304  -32.420313    2.851523
 H  -21.174378  -32.737279   -0.607853
 H  -22.000103  -34.071779    2.040391
 H  -21.582078  -34.544691   -1.773735
 H  -22.787273  -38.698765   -2.655416
 H  -23.250416  -39.431837   -1.135199
 H  -22.717470  -36.330232    1.979100
