43 
2xjj_ligand_xtb.xyz
 C    1.681995   -1.685923   -2.727356
 C    2.171008    0.434907   -3.974301
 C    1.075629   -0.420478   -3.340670
 C    0.265977    0.371383   -2.281409
 C   -0.002740   -0.802694   -4.328032
 C    0.089347   -1.400746   -5.558026
 C   -1.068351   -1.672497   -6.290758
 C   -0.918377   -2.374938   -7.599815
 O   -0.315245   -3.431004   -7.699639
 N   -1.455533   -1.764162   -8.675968
 C   -1.299145   -2.348160   -9.999965
 C   -1.557669   -1.200274  -10.920126
 C   -1.454486   -1.139031  -12.295327
 C   -1.756039    0.057021  -12.931067
 C   -2.152015    1.165970  -12.201398
 C   -2.256410    1.103615  -10.818989
 C   -1.956151   -0.086480  -10.187652
 C   -2.000435   -0.420820   -8.728137
 C   -2.316255   -1.379686   -5.735861
 O   -3.442755   -1.695137   -6.442006
 C   -2.417826   -0.787287   -4.480057
 C   -1.256772   -0.497183   -3.785480
 N   -1.124037    0.020976   -2.523080
 H    0.906168   -2.277180   -2.247128
 H    2.142878   -2.292264   -3.502831
 H    2.438557   -1.428014   -1.988768
 H    2.712970   -0.142725   -4.718393
 H    1.742529    1.307284   -4.463574
 H    2.876450    0.769601   -3.216308
 H    0.429672    1.451546   -2.399524
 H    0.547292    0.092659   -1.262582
 H    1.043588   -1.665355   -5.986719
 H   -2.019175   -3.163395  -10.148701
 H   -0.294296   -2.772624  -10.100544
 H   -1.145241   -2.003151  -12.863929
 H   -1.680280    0.124111  -14.006202
 H   -2.381745    2.088866  -12.713002
 H   -2.565489    1.968174  -10.250244
 H   -1.404938    0.267069   -8.117099
 H   -3.032643   -0.403298   -8.354741
 H   -4.217937   -1.541667   -5.888457
 H   -3.389996   -0.572089   -4.055894
 H   -1.844181    0.610282   -2.137643
