54 
2xk4_ligand_ani-2x.xyz
 C  -26.939506   18.726550  -13.735063
 C  -26.479436   19.629408  -14.858647
 O  -25.326537   20.310636  -14.397943
 C  -24.704509   21.160766  -15.241612
 C  -25.154720   21.416522  -16.533697
 C  -24.459580   22.282890  -17.373515
 C  -25.012772   22.484775  -18.736738
 N  -25.635354   21.449952  -19.277883
 C  -26.103572   21.564266  -20.527904
 C  -26.768384   20.367072  -21.095725
 C  -26.529795   19.129435  -20.495565
 C  -27.140613   17.983477  -20.988877
 O  -26.982996   16.750183  -20.438267
 C  -26.179010   16.648955  -19.282514
 C  -27.994224   18.052555  -22.108476
 O  -28.677635   16.966454  -22.575730
 C  -27.919504   15.822297  -22.956842
 C  -28.230058   19.301041  -22.700386
 O  -29.091762   19.479804  -23.739405
 C  -28.961776   18.628874  -24.870751
 C  -27.626681   20.445301  -22.186544
 C  -25.932269   22.756278  -21.225763
 N  -25.357575   23.828794  -20.684272
 C  -24.925577   23.722860  -19.432797
 N  -24.353280   24.845723  -18.864711
 C  -23.272907   22.872080  -16.929081
 C  -22.820073   22.600274  -15.647826
 C  -23.524826   21.768645  -14.777333
 C  -23.046945   21.573966  -13.367182
 O  -23.751443   21.566258  -12.395749
 O  -21.701995   21.440692  -13.236564
 H  -26.158753   18.002766  -13.484684
 H  -27.164082   19.318456  -12.843115
 H  -27.841056   18.181110  -14.030370
 H  -27.258007   20.357921  -15.122889
 H  -26.234110   19.048863  -15.759539
 H  -26.052950   20.949255  -16.924146
 H  -25.864637   19.087809  -19.642951
 H  -25.141434   16.934314  -19.496857
 H  -26.565168   17.279848  -18.470711
 H  -26.211001   15.602954  -18.975831
 H  -26.975110   16.124873  -23.426740
 H  -27.711102   15.184853  -22.093913
 H  -28.528739   15.277085  -23.683516
 H  -27.905648   18.461398  -25.120686
 H  -29.456021   17.667293  -24.705096
 H  -29.448369   19.153099  -25.696868
 H  -27.873319   21.385902  -22.668950
 H  -26.258421   22.856305  -22.258340
 H  -24.528427   24.970924  -17.875035
 H  -24.539037   25.677995  -19.409169
 H  -22.701451   23.520396  -17.585151
 H  -21.915578   23.090021  -15.292850
 H  -21.291864   21.348876  -14.108529
