54 
2xk4_ligand_xtb.xyz
 C  -26.844297   18.598209  -13.729081
 C  -26.425430   19.497352  -14.880806
 O  -25.260158   20.188438  -14.470955
 C  -24.695755   21.088413  -15.293444
 C  -25.132674   21.363975  -16.583616
 C  -24.467339   22.283884  -17.390407
 C  -24.984680   22.515731  -18.743283
 N  -25.549466   21.480343  -19.338598
 C  -25.993076   21.582471  -20.593411
 C  -26.641123   20.402052  -21.166187
 C  -26.508336   19.180208  -20.505657
 C  -27.110781   18.042582  -21.006182
 O  -27.046380   16.821295  -20.394569
 C  -26.402909   16.732786  -19.147690
 C  -27.851791   18.090685  -22.206588
 O  -28.470538   16.954250  -22.694203
 C  -27.617438   15.884407  -23.050904
 C  -28.000628   19.321187  -22.856497
 O  -28.704027   19.569938  -23.993200
 C  -29.386880   18.547312  -24.684324
 C  -27.395742   20.461630  -22.323725
 C  -25.783982   22.778653  -21.285274
 N  -25.297420   23.850438  -20.689663
 C  -24.936407   23.766825  -19.410139
 N  -24.504338   24.920588  -18.827395
 C  -23.323896   22.920342  -16.911646
 C  -22.879167   22.648407  -15.632487
 C  -23.553438   21.756159  -14.806332
 C  -23.106324   21.545180  -13.399047
 O  -23.839064   21.490130  -12.454525
 O  -21.766753   21.451257  -13.237110
 H  -26.059220   17.878677  -13.514793
 H  -27.009561   19.199367  -12.839796
 H  -27.758058   18.068883  -13.983617
 H  -27.224242   20.213284  -15.116115
 H  -26.211645   18.899235  -15.778137
 H  -25.999210   20.876084  -16.998563
 H  -25.929342   19.162973  -19.598636
 H  -25.337057   16.970536  -19.225313
 H  -26.870417   17.391706  -18.409515
 H  -26.519358   15.696899  -18.831616
 H  -26.873521   16.204392  -23.789942
 H  -27.105185   15.466460  -22.182731
 H  -28.265574   15.128463  -23.491684
 H  -28.695767   17.814697  -25.109081
 H  -30.106935   18.036143  -24.043511
 H  -29.909954   19.056965  -25.493967
 H  -27.554414   21.386590  -22.852504
 H  -26.005611   22.889536  -22.336362
 H  -24.538341   24.988146  -17.824098
 H  -24.704870   25.758499  -19.350316
 H  -22.767219   23.593311  -17.544470
 H  -22.007721   23.168700  -15.256901
 H  -21.296146   21.474428  -14.080687
