58 
2xk7_ligand_aiqm1.xyz
 C    7.041783   -0.059799   -0.870487
 C    5.586782    0.197715   -1.251255
 C    4.656947    0.336887   -0.047081
 C    3.255591    0.756114   -0.481447
 N    2.389665    0.954285    0.697821
 C    1.178468    1.605112    0.372867
 N    0.047678    0.928234    0.341104
 C   -1.090934    1.598126    0.055150
 C   -2.340274    0.810058    0.004420
 C   -2.258661   -0.571545   -0.214126
 C   -3.416503   -1.339686   -0.289067
 O   -3.430459   -2.681286   -0.503012
 C   -2.177747   -3.326347   -0.663618
 C   -4.679036   -0.735497   -0.131812
 O   -5.826696   -1.476341   -0.222729
 C   -6.031178   -2.330825    0.904214
 C   -4.750628    0.640649    0.089636
 O   -5.959864    1.252879    0.291989
 C   -6.795542    1.265800   -0.866766
 C   -3.590105    1.411895    0.144685
 C   -1.050353    2.960183   -0.204182
 N    0.092165    3.666960   -0.160198
 C    1.198665    3.005250    0.129259
 N    2.397300    3.698798    0.132269
 C    2.221608   -0.315148    1.410823
 C    3.570026   -0.788788    1.939277
 C    4.612122   -0.936525    0.820165
 C    4.332531   -2.168682   -0.011487
 O    3.345169   -2.382619   -0.669119
 O    5.344403   -3.061621    0.060379
 H    7.676558   -0.056939   -1.756922
 H    7.411878    0.716664   -0.196347
 H    7.171581   -1.023579   -0.376195
 H    5.525516    1.116927   -1.838600
 H    5.220670   -0.606723   -1.897166
 H    5.049983    1.126671    0.606889
 H    2.824823   -0.010482   -1.140186
 H    3.313446    1.686289   -1.045457
 H   -1.283324   -1.020152   -0.312011
 H   -1.630947   -2.922395   -1.517111
 H   -1.566414   -3.229474    0.235908
 H   -2.404634   -4.372927   -0.839988
 H   -6.081280   -1.739854    1.821908
 H   -6.979051   -2.834650    0.732197
 H   -5.227420   -3.064476    0.982207
 H   -6.298507    1.802151   -1.678205
 H   -7.702930    1.789828   -0.577015
 H   -7.032668    0.252838   -1.185460
 H   -3.699804    2.470371    0.341350
 H   -1.944285    3.512534   -0.459861
 H    3.075043    3.337852    0.787110
 H    2.269485    4.697283    0.176228
 H    1.787421   -1.070074    0.748613
 H    1.530247   -0.159521    2.241342
 H    3.951335   -0.059863    2.658951
 H    3.447583   -1.736932    2.468660
 H    5.593751   -1.088567    1.266170
 H    5.087935   -3.811316   -0.492027
