58 
2xk7_ligand_xtb.xyz
 C    7.284145    0.264777    0.041533
 C    5.983011    0.499948   -0.717969
 C    4.732658    0.373234    0.157997
 C    3.480830    0.712643   -0.656095
 N    2.308802    0.657153    0.198270
 C    1.203207    1.422284   -0.109779
 N    0.017209    0.845959   -0.075142
 C   -1.081628    1.565121   -0.359142
 C   -2.361815    0.858783   -0.283341
 C   -2.358500   -0.535823   -0.310617
 C   -3.544004   -1.241693   -0.250237
 O   -3.615923   -2.607205   -0.300783
 C   -2.423873   -3.330057   -0.484330
 C   -4.777947   -0.566168   -0.138615
 O   -5.964712   -1.279456   -0.104652
 C   -6.138861   -2.136053    1.005855
 C   -4.779484    0.832544   -0.117679
 O   -5.863731    1.652174   -0.035885
 C   -7.175379    1.141143    0.041001
 C   -3.569869    1.525832   -0.191311
 C   -0.948487    2.894812   -0.731165
 N    0.227024    3.516540   -0.684164
 C    1.297811    2.824452   -0.344502
 N    2.490557    3.517063   -0.255381
 C    2.069563   -0.694228    0.665878
 C    3.245872   -1.118764    1.539167
 C    4.585235   -1.025628    0.789137
 C    4.690233   -2.123240   -0.244783
 O    3.968149   -2.303462   -1.188929
 O    5.722705   -2.937343    0.019517
 H    8.134064    0.482203   -0.600809
 H    7.340580    0.913921    0.912832
 H    7.366851   -0.767416    0.370951
 H    5.997707    1.506157   -1.143673
 H    5.912730   -0.203874   -1.550039
 H    4.809840    1.087272    0.986570
 H    3.378879   -0.014272   -1.474118
 H    3.572301    1.705806   -1.094738
 H   -1.406125   -1.030454   -0.390706
 H   -1.922431   -3.047617   -1.414638
 H   -1.735245   -3.191261    0.355473
 H   -2.722414   -4.376374   -0.537958
 H   -6.056077   -1.581224    1.948228
 H   -7.145630   -2.540217    0.909750
 H   -5.414993   -2.952910    1.005584
 H   -7.404741    0.484418   -0.799718
 H   -7.821438    2.019165    0.010124
 H   -7.346748    0.603344    0.977343
 H   -3.621058    2.601106   -0.150574
 H   -1.781065    3.499363   -1.056325
 H    3.106963    3.209511    0.481812
 H    2.348790    4.517450   -0.284279
 H    1.955594   -1.386453   -0.177846
 H    1.144797   -0.695881    1.243400
 H    3.298905   -0.458335    2.407104
 H    3.089941   -2.138403    1.895589
 H    5.397863   -1.189331    1.501941
 H    5.778278   -3.645312   -0.642479
