51 
2xk8_ligand_ani-2x.xyz
 C   21.570835    6.210715  -14.141512
 O   21.652815    7.565839  -14.561736
 C   22.877107    7.890475  -15.073511
 C   23.133108    7.613596  -16.410551
 C   24.341135    8.000774  -16.995185
 C   24.653698    7.770564  -18.431234
 N   25.351927    8.710791  -19.046152
 C   25.608625    8.569798  -20.354419
 C   26.374646    9.662022  -21.008063
 C   26.442229   10.896854  -20.362902
 C   27.135385   11.952230  -20.948450
 O   27.226482   13.199730  -20.423936
 C   26.597609   13.428424  -19.181878
 C   27.798112   11.766484  -22.168465
 O   28.549667   12.772003  -22.701407
 C   27.814407   13.625278  -23.564487
 C   27.696624   10.534247  -22.828343
 O   28.301610   10.485341  -24.042973
 C   28.254890    9.264303  -24.748577
 C   27.004960    9.476016  -22.241089
 C   25.140428    7.450625  -21.036993
 N   24.473617    6.469238  -20.433144
 C   24.250322    6.596177  -19.130181
 N   23.572443    5.565189  -18.505684
 C   25.286210    8.673883  -16.213124
 C   25.038334    8.919153  -14.875871
 C   23.837361    8.519477  -14.275993
 C   23.616266    8.695187  -12.803273
 O   23.099303    7.879890  -12.083588
 O   24.075290    9.854347  -12.281455
 H   21.846186    5.532564  -14.960707
 H   22.216551    6.043493  -13.272435
 H   20.528633    6.034987  -13.864946
 H   22.369647    7.105724  -16.992541
 H   25.944989   11.008810  -19.408161
 H   25.514366   13.264921  -19.249320
 H   27.011883   12.778493  -18.400113
 H   26.793555   14.471108  -18.930134
 H   27.408671   13.061775  -24.414103
 H   26.995664   14.114447  -23.021737
 H   28.513999   14.381284  -23.928366
 H   28.779921    8.467374  -24.205865
 H   27.219557    8.951964  -24.937281
 H   28.758363    9.445342  -25.698959
 H   26.982008    8.511634  -22.736560
 H   25.295212    7.338143  -22.107884
 H   23.861932    5.363995  -17.556393
 H   23.528388    4.740236  -19.089722
 H   26.211124    9.006718  -16.675377
 H   25.804589    9.403093  -14.271740
 H   24.355119   10.449049  -12.991779
