46 
2xk9_ligand_ani-2x.xyz
 O  -47.965397   15.236982   -3.511350
 N  -47.638541   16.342291   -3.094682
 O  -47.650350   16.660357   -1.919459
 C  -47.209006   17.336947   -4.068973
 C  -46.832539   18.596020   -3.627104
 C  -47.168132   17.049073   -5.439938
 N  -47.473760   15.922850   -6.148514
 C  -47.266658   16.141629   -7.487983
 C  -46.818684   17.430597   -7.660135
 C  -46.747374   18.030727   -6.367395
 C  -46.368174   19.303328   -5.907124
 C  -46.415443   19.568078   -4.550001
 C  -47.552117   15.011999   -8.407351
 O  -47.952470   13.937485   -7.982449
 N  -47.327512   15.292934   -9.727058
 C  -47.493634   14.460118  -10.850451
 C  -47.183395   14.994165  -12.106548
 C  -47.319465   14.229568  -13.252076
 C  -47.785409   12.910845  -13.174651
 C  -48.091541   12.392044  -11.914073
 C  -47.948614   13.142104  -10.756332
 C  -47.940941   12.085067  -14.398015
 C  -48.986733   10.999438  -14.459928
 N  -47.161342   12.333810  -15.388107
 N  -47.263112   11.541218  -16.489982
 C  -46.288152   11.663788  -17.481374
 N  -46.071360   10.695933  -18.269702
 N  -45.715206   12.946027  -17.500534
 O  -44.506690   12.956695  -18.218818
 H  -46.866400   18.812370   -2.565830
 H  -46.125175   20.547485   -4.180247
 H  -47.802416   15.060452   -5.735104
 H  -46.555046   17.944300   -8.577185
 H  -46.043252   20.064870   -6.611646
 H  -46.997468   16.225057   -9.924580
 H  -46.826739   16.019072  -12.187091
 H  -48.190975   12.724624   -9.788347
 H  -47.078623   14.650311  -14.222588
 H  -48.445227   11.366848  -11.825370
 H  -49.540553   11.056350  -15.404564
 H  -48.520022   10.007332  -14.398706
 H  -49.711490   11.082195  -13.648337
 H  -47.563687   10.579583  -16.380068
 H  -45.533017   13.261753  -16.551371
 H  -44.678658   13.579070  -18.937978
 H  -45.319505   10.950210  -18.907882
