47 
2xkd_ligand_xtb.xyz
 O   23.563778   -9.058729   12.391275
 C   23.138250   -7.920608   12.972866
 O   22.427909   -7.158837   12.375238
 C   23.585049   -7.680285   14.373157
 C   24.731476   -8.256585   14.920462
 C   25.099074   -7.969622   16.218405
 C   22.817733   -6.820484   15.157682
 C   23.180382   -6.540169   16.458561
 C   24.335393   -7.103760   17.002692
 C   24.763845   -6.834357   18.378358
 N   25.341443   -7.835356   19.019910
 C   24.620929   -5.576154   19.017118
 N   24.159104   -4.455353   18.394018
 N   24.916156   -5.452987   20.310525
 C   25.419651   -6.491315   20.948548
 C   25.713395   -7.692195   20.294347
 C   26.370565   -8.831002   20.931389
 C   27.107615   -8.691543   22.105178
 C   26.265314  -10.083473   20.338383
 C   26.868066  -11.202998   20.893934
 O   26.795491  -12.447564   20.314425
 C   26.051897  -12.592590   19.130769
 C   27.590272  -11.075144   22.089978
 O   28.245088  -12.053885   22.773169
 C   27.994710  -13.415298   22.513014
 C   27.707868   -9.797239   22.678862
 O   28.443860   -9.770687   23.826076
 C   28.614072   -8.540780   24.483173
 H   24.084671   -9.606738   12.992945
 H   25.368881   -8.903553   14.330656
 H   25.986653   -8.406155   16.649457
 H   21.929541   -6.387209   14.723520
 H   22.551068   -5.908560   17.067103
 H   24.230462   -4.399096   17.392154
 H   24.286992   -3.600103   18.911330
 H   25.580256   -6.350728   22.007647
 H   27.220392   -7.719199   22.553069
 H   25.698793  -10.150655   19.425773
 H   24.999752  -12.328797   19.277800
 H   26.467375  -11.990443   18.316500
 H   26.125698  -13.648191   18.871748
 H   26.928100  -13.646835   22.561728
 H   28.385173  -13.723824   21.541011
 H   28.518560  -13.953795   23.302983
 H   29.139118   -7.813891   23.854066
 H   27.656545   -8.117144   24.805373
 H   29.221588   -8.760082   25.359827
