47 
2xkd_ligand_aiqm1.xyz
 O   23.666571   -8.733237   12.173628
 C   23.062791   -7.748841   12.882085
 O   22.187148   -7.099725   12.380431
 C   23.539305   -7.543222   14.286602
 C   24.793516   -7.965590   14.736918
 C   25.177724   -7.735583   16.050734
 C   22.683251   -6.881720   15.168595
 C   23.066094   -6.652708   16.484137
 C   24.322156   -7.074489   16.940903
 C   24.761774   -6.879959   18.351667
 N   25.397677   -7.900958   18.911983
 C   24.542587   -5.685270   19.081947
 N   23.890263   -4.590742   18.547160
 N   24.921246   -5.581467   20.352318
 C   25.523566   -6.636340   20.904992
 C   25.790694   -7.804090   20.191979
 C   26.487525   -8.963309   20.788584
 C   27.187942   -8.835720   21.993848
 C   26.429237  -10.198047   20.138365
 C   27.061417  -11.308433   20.696140
 O   27.028875  -12.557589   20.170034
 C   26.307999  -12.733233   18.962961
 C   27.781424  -11.186965   21.891282
 O   28.442246  -12.260758   22.411299
 C   27.629685  -13.025321   23.299122
 C   27.826937   -9.947887   22.542629
 O   28.506045   -9.941240   23.716978
 C   28.614917   -8.703711   24.397032
 H   24.258812   -9.228320   12.746569
 H   25.495898   -8.444655   14.062665
 H   26.143784   -8.075835   16.400048
 H   21.719550   -6.555281   14.801134
 H   22.388207   -6.149760   17.160438
 H   24.040081   -4.422200   17.564916
 H   23.991960   -3.769090   19.121432
 H   25.793968   -6.537783   21.947436
 H   27.246663   -7.883736   22.495856
 H   25.888624  -10.268456   19.209240
 H   25.255610  -12.468885   19.088166
 H   26.736306  -12.136088   18.155955
 H   26.391657  -13.786915   18.718766
 H   27.305469  -12.412209   24.145028
 H   26.753855  -13.417945   22.774733
 H   28.249403  -13.846025   23.651945
 H   29.139088   -7.962354   23.790529
 H   27.631143   -8.314076   24.671859
 H   29.187309   -8.908233   25.295133
