52 
2xkf_ligand_dft.xyz
 C    2.286948   -3.601819    0.709915
 O    3.443054   -2.877654    0.356001
 C    3.309465   -1.547505    0.131875
 C    2.115799   -0.840302    0.264520
 C    2.090289    0.534365    0.027770
 C    0.810889    1.266823    0.187116
 C    0.741304    2.627484    0.445311
 N   -0.423906    3.288431    0.508219
 C   -1.532117    2.584929    0.372948
 N   -2.747331    3.252598    0.394375
 C   -1.484351    1.166096    0.228989
 N   -2.675915    0.438088    0.121824
 C   -2.545696   -0.921207   -0.410886
 C   -3.905166   -1.637921   -0.385006
 C   -5.051749   -0.635353   -0.485652
 C   -6.395615   -1.333051   -0.636055
 O   -6.549458   -2.523700   -0.677962
 O   -7.469049   -0.511343   -0.717730
 C   -5.036587    0.302678    0.749171
 C   -3.600011    0.491430    1.257064
 N   -0.328993    0.548672    0.104116
 C    3.256715    1.203023   -0.351859
 C    4.452820    0.495690   -0.478763
 O    5.640329    1.049163   -0.828627
 C    5.670159    2.432010   -1.093960
 C    4.483205   -0.885269   -0.249743
 O    5.638914   -1.585375   -0.434148
 C    6.432551   -1.689074    0.735862
 H    1.862544   -3.247883    1.658432
 H    1.519508   -3.541610   -0.072165
 H    2.606601   -4.638525    0.822496
 H    1.194271   -1.330649    0.549823
 H    1.635027    3.224980    0.597008
 H   -2.635933    4.248929    0.253957
 H   -3.443657    2.837949   -0.213622
 H   -1.804301   -1.498639    0.157949
 H   -2.165640   -0.839521   -1.434102
 H   -4.025889   -2.212091    0.540226
 H   -3.960744   -2.363660   -1.199375
 H   -4.898910   -0.022476   -1.385285
 H   -7.187087    0.411710   -0.670988
 H   -5.651593   -0.113224    1.555348
 H   -5.461982    1.282141    0.493077
 H   -3.501408    1.450141    1.767976
 H   -3.343577   -0.293402    1.985623
 H    3.223604    2.261824   -0.576082
 H    5.023370    2.694438   -1.941106
 H    5.370886    3.019654   -0.215948
 H    6.704899    2.665795   -1.347366
 H    6.739940   -0.697782    1.091261
 H    5.891624   -2.214921    1.532151
 H    7.318032   -2.264575    0.459005
