29 
2xm1_ligand_xtb.xyz
 O    3.118181   -1.316153   -0.663411
 C    3.144607   -0.460245    0.206546
 C    4.434082    0.149231    0.705543
 N    2.052954    0.051251    0.799552
 C    0.664713   -0.359515    0.684876
 C    0.150597   -0.545572   -0.749764
 O    0.604423   -1.724240   -1.350461
 C   -1.381347   -0.676693   -0.708902
 O   -1.888752   -0.917633   -1.991083
 C   -2.012036    0.597699   -0.159663
 C   -3.504766    0.407013    0.118355
 O   -4.016880    1.634745    0.589021
 N   -1.351874    1.004821    1.058181
 C   -0.114526    0.713887    1.465246
 O    0.405971    1.256508    2.423328
 H    5.265282   -0.258707    0.137921
 H    4.569812   -0.084298    1.759229
 H    4.409811    1.229909    0.588797
 H    2.172436    0.713910    1.561657
 H    0.520102   -1.318436    1.211266
 H    0.430686    0.334060   -1.354689
 H    1.586163   -1.757076   -1.246485
 H   -1.624220   -1.524438   -0.044735
 H   -1.275445   -1.539459   -2.410079
 H   -1.914750    1.390771   -0.914956
 H   -3.987881    0.096845   -0.814407
 H   -3.638176   -0.381539    0.872356
 H   -4.972670    1.565296    0.674470
 H   -1.846798    1.717957    1.580989
