29 
2xm1_ligand_aiqm1.xyz
 O    2.950087   -1.698013   -0.057379
 C    3.116465   -0.572672    0.407466
 C    4.483710   -0.060887    0.784887
 N    2.089833    0.288343    0.599632
 C    0.705224   -0.136534    0.565044
 C    0.149570   -0.347829   -0.842642
 O    0.713657   -1.437234   -1.537855
 C   -1.340622   -0.644297   -0.725640
 O   -1.911377   -0.919472   -1.984715
 C   -2.066586    0.546919   -0.135815
 C   -3.536597    0.281646    0.102160
 O   -4.064051    1.472522    0.684647
 N   -1.439372    0.914442    1.137153
 C   -0.102728    0.902227    1.354909
 O    0.444788    1.600874    2.188893
 H    5.183900   -0.319032   -0.005608
 H    4.806015   -0.571033    1.692493
 H    4.492952    1.015004    0.955513
 H    2.247286    1.106978    1.173523
 H    0.600989   -1.091809    1.090076
 H    0.299359    0.572851   -1.424929
 H    1.536389   -1.713467   -1.099492
 H   -1.460286   -1.509734   -0.055544
 H   -1.304514   -1.515862   -2.433372
 H   -1.990577    1.378491   -0.847806
 H   -4.020615    0.052306   -0.847723
 H   -3.652390   -0.567203    0.784116
 H   -5.000620    1.349372    0.839829
 H   -1.930192    1.623004    1.666878
