33 
2xn3_ligand_xtb.xyz
 O    5.667168    8.204420   24.115349
 C    6.833993    8.024320   23.896077
 O    7.356657    8.353227   22.691097
 C    7.783841    7.485121   24.903897
 C    7.531085    7.808387   26.235614
 C    8.388274    7.408905   27.239508
 C    9.504219    6.649624   26.916580
 C    9.752152    6.285693   25.609475
 C    8.902522    6.694100   24.578823
 N    9.112353    6.296548   23.266872
 C   10.298322    5.761718   22.753257
 C   10.247879    4.684874   21.858552
 C    8.921159    4.049907   21.547131
 C   11.513195    6.365149   23.066514
 C   12.681209    5.889101   22.507641
 C   12.637727    4.833491   21.615925
 C   11.432377    4.231887   21.275930
 C   11.431446    3.102118   20.288155
 H    8.317723    8.232662   22.665636
 H    6.651346    8.394755   26.452989
 H    8.189899    7.678575   28.264762
 H   10.176863    6.319326   27.694124
 H   10.596715    5.656605   25.373741
 H    8.282604    6.097050   22.727061
 H    9.050577    3.064748   21.112382
 H    8.324899    3.937978   22.452777
 H    8.358247    4.657515   20.835677
 H   11.530061    7.211302   23.737065
 H   13.624043    6.353146   22.754648
 H   13.553040    4.473551   21.170055
 H   11.111199    2.173317   20.760071
 H   10.758477    3.312553   19.458518
 H   12.430931    2.950326   19.889098
