26 
2xp3_ligand_xtb.xyz
 C   38.598085  -19.713420   10.339483
 O   38.809294  -18.541868   11.093701
 C   39.180701  -18.652818   12.394727
 C   39.369627  -19.869609   13.040467
 C   39.749968  -19.917654   14.370259
 C   39.949512  -18.748450   15.081868
 C   39.765776  -17.533992   14.453250
 C   39.382314  -17.454548   13.113693
 C   39.204992  -16.149980   12.507216
 O   39.442030  -15.060701   13.273770
 C   38.823041  -15.748097   11.244431
 C   38.829214  -14.344814   11.246087
 C   39.213635  -13.960405   12.507635
 C   39.395734  -12.627626   13.088589
 O   39.213339  -11.607801   12.479485
 O   39.789238  -12.624209   14.377854
 H   39.509412  -20.314475   10.265043
 H   37.789891  -20.321348   10.757275
 H   38.312286  -19.372196    9.345626
 H   39.221151  -20.795816   12.509068
 H   39.889330  -20.876367   14.846351
 H   40.245810  -18.782601   16.118549
 H   39.919007  -16.617548   15.001645
 H   38.571629  -16.386679   10.426004
 H   38.586728  -13.685579   10.438706
 H   39.888656  -13.526502   14.713818
