26 
2xp3_ligand_ani-2x.xyz
 C   38.604655  -19.757387   10.365557
 O   38.806738  -18.560383   11.089742
 C   39.179418  -18.656917   12.391376
 C   39.365529  -19.885924   13.029876
 C   39.748463  -19.929453   14.365066
 C   39.948969  -18.752131   15.073754
 C   39.764069  -17.532290   14.439057
 C   39.377470  -17.448699   13.092992
 C   39.190627  -16.141057   12.455197
 O   39.433961  -15.055051   13.247854
 C   38.814045  -15.707500   11.208712
 C   38.829038  -14.288146   11.242959
 C   39.211342  -13.939909   12.500092
 C   39.405426  -12.617442   13.125467
 O   39.222756  -11.597130   12.512691
 O   39.796037  -12.621269   14.412730
 H   39.523202  -20.355928   10.313993
 H   37.800676  -20.361859   10.804709
 H   38.316659  -19.453864    9.358198
 H   39.214446  -20.817364   12.494951
 H   39.889575  -20.893158   14.849075
 H   40.248529  -18.780980   16.117850
 H   39.923139  -16.617941   15.001951
 H   38.557770  -16.331774   10.370825
 H   38.590696  -13.593872   10.449357
 H   39.887165  -13.537674   14.720568
