25 
2xp5_ligand_dft.xyz
 O  -37.367551   28.129443   27.434332
 C  -37.828701   27.965296   26.184553
 O  -38.876327   28.459092   25.813071
 C  -36.946987   27.144015   25.346729
 C  -37.173319   26.808942   24.026536
 N  -36.088833   26.048674   23.686243
 C  -35.264891   25.947432   24.782266
 N  -35.766229   26.604243   25.797791
 C  -34.003829   25.196155   24.794068
 C  -33.416630   24.702400   23.625723
 C  -32.223605   23.989736   23.683429
 C  -31.601297   23.767463   24.907721
 C  -32.177858   24.264918   26.074955
 C  -33.370446   24.973244   26.021476
 C  -38.273824   27.116402   23.070311
 H  -38.028647   28.681337   27.881225
 H  -35.954746   25.604330   22.791203
 H  -39.023371   27.726410   23.574227
 H  -37.898637   27.667974   22.200530
 H  -38.751606   26.198343   22.708986
 H  -33.871126   24.883005   22.654638
 H  -33.831396   25.366012   26.921609
 H  -31.777697   23.613474   22.767693
 H  -30.669463   23.212017   24.952185
 H  -31.695984   24.097645   27.033499
