37 
2xp8_ligand_xtb.xyz
 C  -33.423009   24.393263   23.100125
 C  -32.300261   23.588769   23.049417
 C  -33.902300   29.224692   27.571700
 C  -31.322158   23.689623   24.025282
 C  -31.469758   24.601643   25.058810
 C  -32.588021   25.408819   25.116654
 C  -33.578263   25.313811   24.136901
 C  -34.737668   26.177462   24.231887
 N  -34.929163   27.059385   25.198174
 N  -35.765890   26.208827   23.351629
 C  -36.654326   27.157736   23.782116
 C  -37.856302   27.436155   23.006208
 O  -38.232356   26.720746   22.103748
 O  -38.471373   28.563116   23.355694
 C  -36.106283   27.676194   24.948427
 C  -36.766527   28.609472   25.898296
 O  -37.948419   28.482177   26.163318
 N  -36.007186   29.590944   26.434409
 C  -34.582354   29.741446   26.291447
 C  -36.568255   30.406090   27.496116
 C  -35.523207   30.567243   28.615877
 O  -34.712839   29.422591   28.713665
 H  -34.367635   30.806200   26.142956
 H  -34.219703   29.182845   25.432087
 H  -33.748491   28.145894   27.501653
 H  -32.931021   29.725529   27.707123
 H  -36.015980   30.670663   29.583711
 H  -34.903137   31.460006   28.442346
 H  -37.460606   29.890499   27.857832
 H  -36.862733   31.387067   27.104223
 H  -35.913029   25.650195   22.525707
 H  -39.297150   28.664870   22.857119
 H  -34.175319   24.298085   22.330939
 H  -32.722727   26.122518   25.913577
 H  -32.187983   22.877937   22.244176
 H  -30.447987   23.057598   23.980200
 H  -30.709582   24.680892   25.821450
