37 
2xp8_ligand_aiqm1.xyz
 C  -33.343192   24.510407   23.029889
 C  -32.244009   23.661128   22.972519
 C  -33.820702   29.424283   27.397564
 C  -31.378698   23.560263   24.060392
 C  -31.614004   24.315623   25.208470
 C  -32.709186   25.165186   25.270252
 C  -33.583260   25.266319   24.181392
 C  -34.733735   26.168525   24.278184
 N  -34.945979   27.012829   25.280181
 N  -35.720860   26.256435   23.357167
 C  -36.626338   27.195750   23.794441
 C  -37.778686   27.477034   22.942704
 O  -38.047066   26.793728   21.980993
 O  -38.465120   28.566462   23.300333
 C  -36.124478   27.654663   25.001026
 C  -36.804397   28.567515   25.975314
 O  -37.975542   28.374994   26.273264
 N  -36.073009   29.579462   26.502500
 C  -34.683530   29.873513   26.217199
 C  -36.608023   30.265779   27.676361
 C  -35.439899   30.663426   28.582882
 O  -34.491140   29.618619   28.641341
 H  -34.592760   30.952232   26.058765
 H  -34.374328   29.376616   25.302577
 H  -33.614207   28.357702   27.319777
 H  -32.874064   29.979307   27.394383
 H  -35.788635   30.826556   29.600786
 H  -34.968955   31.587719   28.228612
 H  -37.274612   29.571424   28.187556
 H  -37.196781   31.143554   27.389522
 H  -35.842976   25.718667   22.518154
 H  -39.220144   28.617126   22.700180
 H  -34.002523   24.585112   22.173912
 H  -32.913838   25.759439   26.150032
 H  -32.063562   23.077921   22.079562
 H  -30.526201   22.896344   24.012534
 H  -30.944561   24.239337   26.054279
