36 
2xpa_ligand_aiqm1.xyz
 C   38.129643  -17.596005   10.461203
 C   37.824930  -18.952320   10.454835
 C   38.388769  -19.801642   11.405076
 C   39.261015  -19.289810   12.364567
 C   39.568568  -17.936820   12.375040
 C   39.003980  -17.079950   11.422762
 C   39.347068  -15.656698   11.458790
 N   40.188306  -15.107738   12.324652
 N   38.854617  -14.726040   10.604536
 C   39.403066  -13.509545   10.949008
 C   39.131100  -12.286449   10.202251
 O   38.132109  -12.489166    9.302640
 O   39.710696  -11.239407   10.318493
 C   40.230291  -13.775027   12.026257
 C   40.959943  -12.763475   12.850551
 O   40.339962  -11.808160   13.314761
 N   42.280342  -12.946581   13.051431
 C   43.000041  -14.159043   12.674824
 C   42.960626  -11.967367   13.893601
 C   42.844358  -12.287958   15.384764
 O   43.820256  -12.537651   16.069085
 N   41.570855  -12.280141   15.840652
 H   37.683210  -16.949048    9.715598
 H   37.147213  -19.345946    9.709307
 H   38.148148  -20.856044   11.397132
 H   39.698752  -19.946717   13.103652
 H   40.240339  -17.516268   13.109619
 H   38.194996  -14.868597    9.862009
 H   38.012103  -11.642278    8.857682
 H   42.775011  -14.427598   11.642850
 H   44.063201  -13.953423   12.765061
 H   42.735979  -14.996925   13.316756
 H   44.017483  -11.940083   13.640197
 H   42.507040  -10.995199   13.697677
 H   40.827047  -11.961837   15.238552
 H   41.414939  -12.386043   16.826128
