36 
2xpa_ligand_ani-2x.xyz
 C   38.382381  -17.884280   10.225840
 C   38.153589  -19.253496   10.284973
 C   38.482865  -19.971097   11.432879
 C   39.048617  -19.313854   12.522042
 C   39.280433  -17.945792   12.463920
 C   38.942141  -17.219773   11.320106
 C   39.210654  -15.776996   11.333299
 N   39.937288  -15.189578   12.263520
 N   38.758978  -14.875401   10.422788
 C   39.229872  -13.639667   10.805584
 C   39.047538  -12.421849   10.017750
 O   38.184363  -12.616071    8.988778
 O   39.597738  -11.368626   10.233444
 C   39.958273  -13.861470   11.955710
 C   40.521970  -12.795930   12.857013
 O   39.819887  -11.879442   13.252412
 N   41.840094  -12.915086   13.226791
 C   42.817829  -13.745359   12.535897
 C   42.362654  -11.932963   14.146012
 C   42.978953  -12.552430   15.403004
 O   43.367212  -13.704594   15.477502
 N   43.104744  -11.671553   16.433926
 H   38.133416  -17.342125    9.316045
 H   37.715574  -19.761827    9.429921
 H   38.301517  -21.041594   11.477190
 H   39.311708  -19.869024   13.418794
 H   39.726100  -17.408493   13.296700
 H   38.120272  -15.005704    9.650917
 H   38.122762  -11.766406    8.521293
 H   43.383873  -13.150069   11.807728
 H   43.493796  -14.165716   13.282543
 H   42.298249  -14.556709   12.023868
 H   43.142144  -11.330361   13.650086
 H   41.551639  -11.250694   14.414739
 H   42.663708  -10.766911   16.418222
 H   43.423169  -12.032060   17.320763
