28 
2xsb_ligand_xtb.xyz
 C   -0.170412    1.227421   -0.737673
 C    0.688663    0.508128    0.313782
 C    0.009010   -0.735985    0.907718
 C   -1.449515   -0.373532    1.232264
 C   -2.182185    0.048916   -0.033434
 C   -3.575962    0.616179    0.271117
 C    3.024845   -0.424136    0.114009
 C    4.229502   -0.327318   -0.789935
 N    1.960200    0.264621   -0.345921
 O    0.350852    1.967428   -1.531976
 O    0.570746   -1.144131    2.118696
 O   -2.119926   -1.468576    1.783399
 O   -1.479629    1.057155   -0.767679
 O   -4.306172    0.866608   -0.892772
 O    3.021696   -1.079074    1.141208
 H    0.832688    1.223476    1.143543
 H    0.031505   -1.554554    0.167465
 H   -1.436515    0.465383    1.950401
 H   -2.295497   -0.822363   -0.692067
 H   -3.460804    1.529710    0.872293
 H   -4.131959   -0.126285    0.845586
 H    5.018631   -0.964706   -0.402029
 H    3.971682   -0.641073   -1.798466
 H    4.583791    0.700616   -0.824594
 H    2.079047    0.843185   -1.170895
 H    1.541979   -1.250517    1.981154
 H   -1.514689   -1.867364    2.425760
 H   -3.791571    1.460588   -1.453356
