16 
2xzw_ligand_aiqm1.xyz
 C   -8.768477  -21.765210  -24.434368
 O   -8.696267  -22.277192  -25.515601
 O   -7.787889  -21.067750  -23.869329
 C  -10.031971  -21.862541  -23.553318
 O  -10.009371  -21.319255  -22.466041
 C  -11.182170  -22.648413  -24.107243
 C  -12.392760  -22.727807  -23.176663
 C  -13.216556  -21.450254  -23.184143
 O  -14.233897  -21.329661  -23.809035
 O  -12.729429  -20.427558  -22.455620
 H   -8.101692  -20.767760  -23.001617
 H  -10.797884  -23.645150  -24.330068
 H  -11.447558  -22.226304  -25.077604
 H  -12.068731  -22.959648  -22.160697
 H  -13.051469  -23.519252  -23.520135
 H  -11.872479  -20.676944  -22.077417
