16 
2y7k_ligand_aiqm1.xyz
 C   25.827889   18.849262   73.919172
 O   24.934023   19.849401   73.928954
 O   26.026445   18.200457   74.914099
 C   26.563951   18.568639   72.640238
 C   26.404708   19.265108   71.436849
 C   27.139746   18.921810   70.306202
 C   28.047959   17.872869   70.362679
 C   28.225960   17.163116   71.547761
 C   27.486785   17.516338   72.666910
 O   25.502102   20.301082   71.395892
 H   24.898895   20.265245   73.056819
 H   27.000788   19.474820   69.384047
 H   28.614140   17.613986   69.478395
 H   28.931336   16.346366   71.597111
 H   27.596827   16.989637   73.604761
 H   25.492646   20.690463   70.520312
