16 
2y7p_ligand_xtb.xyz
 C   14.968102   48.439105    3.545613
 O   15.166729   49.621753    2.922090
 O   15.676907   48.093416    4.444068
 C   13.843978   47.624057    2.992299
 C   12.978437   46.938193    3.856690
 C   11.976413   46.135279    3.318109
 C   11.836776   46.005156    1.949677
 C   12.689214   46.682112    1.093046
 C   13.682224   47.488675    1.616844
 O   13.116125   47.113644    5.185042
 H   14.504679   49.790087    2.238868
 H   11.307443   45.607927    3.985187
 H   11.058723   45.371959    1.551056
 H   12.583825   46.578272    0.024632
 H   14.366671   47.993438    0.948207
 H   12.490353   46.558727    5.667372
