16 
2y7w_ligand_aiqm1.xyz
 C   14.090673   14.286571    2.789565
 O   14.586799   15.547845    2.926305
 O   13.741671   13.673078    3.754306
 C   13.995817   13.802162    1.373438
 C   14.419879   12.514689    1.026427
 C   14.263735   12.054395   -0.280848
 C   13.682367   12.870553   -1.241847
 C   13.262243   14.158098   -0.915236
 C   13.428428   14.613674    0.387278
 O   15.019416   11.765818    1.987172
 H   14.900504   15.865238    2.073546
 H   14.589996   11.053314   -0.540378
 H   13.558061   12.496905   -2.248623
 H   12.806896   14.795427   -1.658898
 H   13.083407   15.605713    0.658940
 H   15.200309   10.892621    1.632756
