16 
2y7w_ligand_ani-2x.xyz
 C   14.500789   14.393688    2.698996
 O   13.660088   15.371019    3.123595
 O   15.420178   14.046757    3.386309
 C   14.201547   13.848604    1.331032
 C   14.339513   12.482442    1.053377
 C   14.109157   12.007378   -0.240901
 C   13.755070   12.885411   -1.256841
 C   13.622663   14.245899   -0.996141
 C   13.837329   14.711627    0.294390
 O   14.673808   11.650492    2.067524
 H   12.906029   15.448900    2.522438
 H   14.211438   10.942757   -0.446753
 H   13.583520   12.501278   -2.258817
 H   13.342567   14.935628   -1.787249
 H   13.757874   15.778215    0.501967
 H   14.708631   10.746005    1.730975
