45 
2y9g_ligand_xtb.xyz
 C   -1.039469   -0.232555    0.411942
 C   -2.349382    0.414611    0.880588
 C   -3.481086   -0.611292    0.750405
 C   -3.544031   -1.129770   -0.697292
 C   -2.162574   -1.643184   -1.123423
 C   -2.108059   -1.997579   -2.616339
 O   -0.044091    0.728181    0.496246
 O   -2.278615    0.824252    2.221415
 O   -4.723975   -0.028505    1.048400
 O   -3.950025   -0.105629   -1.562453
 O   -1.162186   -0.659490   -0.919435
 O   -0.873462   -2.547707   -2.975979
 C    4.002786    1.163764   -0.181304
 C    3.229121    0.533898   -1.346410
 C    1.737238    0.833826   -1.166374
 C    1.282944    0.292627    0.199581
 C    2.198993    0.826026    1.312513
 C    1.916922    0.145558    2.657120
 O    3.816327    2.538397   -0.202493
 O    3.721343    1.021278   -2.557277
 O    1.059662    0.234628   -2.243966
 O    3.572896    0.592476    1.033229
 O    2.662915    0.718798    3.691732
 H   -0.804408   -1.106488    1.058127
 H   -2.555012    1.267534    0.216347
 H   -3.274065   -1.446541    1.437680
 H   -4.260100   -1.966168   -0.736999
 H   -1.915517   -2.531517   -0.519750
 H   -2.863031   -2.755121   -2.832669
 H   -2.332693   -1.090643   -3.188905
 H   -1.514702    1.405721    2.315780
 H   -4.628514    0.440670    1.886531
 H   -4.704326    0.329486   -1.139851
 H   -0.182480   -1.891225   -2.815544
 H    5.064530    0.892638   -0.261442
 H    3.369638   -0.559727   -1.287481
 H    1.588216    1.923816   -1.178662
 H    1.321397   -0.804234    0.177724
 H    2.020087    1.907019    1.403646
 H    2.144749   -0.925733    2.559083
 H    0.865594    0.269621    2.922720
 H    4.431461    2.960207    0.408762
 H    3.039390    0.860626   -3.222922
 H    0.115814    0.208895   -2.021464
 H    3.589579    0.698453    3.422563
