37 
2ya6_ligand_aiqm1.xyz
 C    0.162741    3.973230    1.569412
 C   -0.298102    2.638361    1.116689
 C   -1.455133    2.125346    1.547937
 C   -1.925110    0.749355    1.168825
 C   -0.854516    0.004426    0.339327
 C   -0.070838    0.985298   -0.534628
 C    1.065590    0.454172   -1.403916
 C    2.286535   -0.158851   -0.708489
 C    2.014464   -1.305282    0.256097
 C   -1.865718   -2.209836    0.017174
 C   -2.260287   -3.258004   -0.993583
 N   -1.470393   -1.020566   -0.494856
 O    1.370511    4.303682    1.087925
 O   -0.480622    4.684912    2.300704
 O   -2.219171    0.069471    2.368504
 O    0.548846    1.998763    0.256556
 O    0.516405   -0.464932   -2.338752
 O    3.071328   -0.626542   -1.800994
 O    3.265962   -1.966319    0.426521
 O   -1.908401   -2.426212    1.225655
 H   -2.054437    2.686602    2.252279
 H   -2.833266    0.841999    0.557126
 H   -0.199160   -0.479749    1.064532
 H   -0.793482    1.445074   -1.223415
 H    1.453871    1.321110   -1.944228
 H    2.832548    0.618053   -0.168425
 H    1.668821   -0.917557    1.215265
 H    1.259586   -1.985768   -0.150961
 H   -3.190514   -3.720716   -0.673691
 H   -2.374203   -2.848157   -1.996391
 H   -1.494859   -4.033776   -1.008091
 H   -1.274708   -0.981664   -1.484581
 H    1.563962    5.174006    1.458783
 H   -2.207149   -0.881593    2.174788
 H    1.275220   -0.848589   -2.788718
 H    3.747301   -1.198804   -1.428399
 H    3.126477   -2.740644    0.969417
