43 
2ya7_ligand_ani-2x.xyz
 C   -0.565497    4.242492   -0.956781
 O    0.232378    5.127350   -1.166318
 O   -1.891939    4.435960   -0.910959
 C   -0.181024    2.820421   -0.719440
 C    1.095111    2.436857   -0.730729
 C    1.486842    1.020828   -0.446180
 C    0.258812    0.091186   -0.699072
 N    0.526977   -1.281393   -0.289124
 C    0.903284   -1.631429    0.969884
 O    0.894759   -0.834526    1.906249
 C    1.366951   -3.059252    1.129092
 C   -0.976664    0.685680   -0.012366
 O   -1.240557    1.999134   -0.548125
 C   -2.294341   -0.064921   -0.270072
 O   -3.394297    0.771262    0.053103
 C   -2.537246   -1.338265    0.544562
 O   -3.834375   -1.832406    0.224023
 C   -2.476915   -1.122659    2.059410
 O   -2.960339   -2.271364    2.714134
 N    2.665982    0.656458   -1.219631
 C    3.528137   -0.371840   -0.848649
 N    3.685633   -0.923310    0.294699
 N    4.285844   -0.829327   -1.933462
 H   -2.020734    5.385779   -1.075189
 H    1.863575    3.171580   -0.932162
 H    1.751621    0.921360    0.612316
 H    0.060145    0.061932   -1.774986
 H    0.724395   -1.943734   -1.024862
 H    2.454609   -3.078312    1.010800
 H    0.914001   -3.722555    0.385945
 H    1.118858   -3.406523    2.133983
 H   -0.781958    0.785316    1.062276
 H   -2.340687   -0.338525   -1.339692
 H   -3.165586    1.668401   -0.231940
 H   -1.830703   -2.120140    0.261144
 H   -4.406271   -1.047927    0.213326
 H   -3.084090   -0.233562    2.304626
 H   -1.448465   -0.944745    2.393265
 H   -3.708281   -2.558931    2.167228
 H    2.541608    0.739975   -2.219944
 H    3.093043   -0.507588    1.006657
 H    4.997359   -1.468177   -1.602564
 H    4.689945   -0.090059   -2.495174
