28 
2yb0_ligand_aiqm1.xyz
 N    1.015722   -0.774738   -0.084787
 C    1.719140   -1.917166    0.270106
 N    3.083654   -1.794834    0.171467
 C    3.830351   -0.669473   -0.198235
 C    3.005736    0.482850   -0.516219
 C    1.659352    0.385420   -0.452647
 O    1.171685   -2.930764    0.654332
 O    5.041986   -0.718742   -0.224344
 C   -0.443126   -0.861603   -0.007845
 C   -1.006955   -0.393008    1.335875
 C   -2.375434    0.139637    0.929071
 C   -2.098953    0.734175   -0.445327
 O   -3.317047   -0.901566    0.728332
 O   -1.003974   -0.016246   -0.992927
 C   -1.674582    2.189212   -0.406702
 O   -1.278070    2.632258   -1.687410
 H    3.607841   -2.621809    0.415114
 H    3.490821    1.398421   -0.812048
 H    1.010177    1.215362   -0.692883
 H   -0.704045   -1.896856   -0.213444
 H   -0.387242    0.410842    1.742902
 H   -1.054261   -1.203929    2.060329
 H   -2.763335    0.883613    1.629423
 H   -2.955014    0.607027   -1.107273
 H   -3.404793   -1.403033    1.539936
 H   -0.850039    2.306884    0.316352
 H   -2.499797    2.821873   -0.083524
 H   -0.819999    1.896291   -2.105123
