28 
2yb0_ligand_ani-2x.xyz
 N    0.988776   -0.781388   -0.146789
 C    1.720953   -1.925101    0.182123
 N    3.085976   -1.756351    0.120474
 C    3.803403   -0.596355   -0.199396
 C    2.945353    0.542339   -0.506230
 C    1.609204    0.411101   -0.466772
 O    1.196163   -2.974731    0.490773
 O    5.017162   -0.602284   -0.202547
 C   -0.465585   -0.897588   -0.029097
 C   -1.014938   -0.435435    1.328294
 C   -2.377326    0.160942    0.964122
 C   -2.117668    0.730329   -0.426123
 O   -3.386043   -0.823439    0.821576
 O   -1.080037   -0.086382   -1.011226
 C   -1.590887    2.164581   -0.416893
 O   -0.948279    2.467996   -1.632837
 H    3.631654   -2.576729    0.352493
 H    3.426319    1.477900   -0.760450
 H    0.939078    1.236728   -0.691394
 H   -0.705862   -1.940809   -0.230950
 H   -0.367057    0.339942    1.750174
 H   -1.084920   -1.259575    2.044811
 H   -2.697077    0.946730    1.666317
 H   -3.007129    0.637254   -1.055149
 H   -3.515238   -1.244360    1.680454
 H   -0.887192    2.297373    0.423491
 H   -2.411110    2.875468   -0.264615
 H   -0.707895    1.611943   -2.022136
