62 
2yb9_ligand_xtb.xyz
 C   -0.658853   -0.558699   -1.766415
 N   -0.236012   -1.444369   -0.846701
 O    0.093980    0.327050   -2.137378
 C    1.563284    0.159731   -0.413268
 O    2.661717    0.229069   -1.157343
 N    3.151043   -2.564442    2.233498
 C   -1.981303   -2.142753   -3.129964
 C   -2.340198    0.250685   -3.447264
 O    3.021810   -0.389357    1.896138
 C   -3.313080    0.437517   -0.461922
 C    4.317075   -1.991615    2.641925
 C   -6.027846    1.533669    2.099993
 C   -4.794566    1.637641    1.211553
 C    1.059407   -1.681590    1.217481
 C    1.084168   -1.294093   -0.268350
 C    6.436851    0.225611    3.187797
 C    7.303156    1.281521    3.393249
 C    6.918639    2.574886    3.075820
 C   -2.049358   -0.805365   -2.356872
 C   -4.535038    0.335037    0.458237
 C   -2.064458    0.645964    0.374490
 C    5.166575    0.455810    2.658728
 C    4.785196    1.760518    2.342030
 C   -1.458187   -1.739046   -4.503011
 O   -1.680799   -0.144823    1.203893
 C   -2.251297   -0.470356   -4.799546
 O   -1.438569    1.766258    0.075218
 C    4.247197   -0.638460    2.433341
 C   -3.145154   -0.852317   -1.279472
 O    1.145862    1.090138    0.234822
 C    2.418043   -1.583407    1.804993
 C    5.658409    2.810213    2.550633
 H   -0.867204   -2.090211   -0.401238
 H    2.954796    1.150139   -1.238375
 H   -2.987885   -2.554720   -3.226649
 H   -1.351445   -2.883727   -2.639823
 H   -3.322480    0.699524   -3.311114
 H   -1.592047    1.040148   -3.381867
 H   -3.418359    1.298689   -1.125137
 H    5.107301   -2.586409    3.048869
 H   -5.901321    0.742394    2.835385
 H   -6.910452    1.310067    1.504248
 H   -6.198023    2.468716    2.627851
 H   -3.924155    1.878337    1.825056
 H   -4.928911    2.450465    0.494216
 H    0.367667   -1.009472    1.733126
 H    0.719967   -2.711398    1.326682
 H    1.798056   -1.924678   -0.817542
 H    6.737809   -0.780435    3.435105
 H    8.284940    1.096653    3.803659
 H    7.599766    3.396820    3.238685
 H   -4.366201   -0.470836    1.175799
 H   -5.413682    0.080437   -0.139195
 H    3.799687    1.938209    1.938169
 H   -0.394047   -1.508410   -4.440049
 H   -1.605175   -2.514472   -5.253487
 H   -1.777967    0.146000   -5.561184
 H   -3.249588   -0.738209   -5.150535
 H   -0.524340    1.774317    0.440800
 H   -4.092452   -1.062165   -1.782987
 H   -2.957203   -1.673334   -0.582652
 H    5.355053    3.817133    2.304151
