62 
2yb9_ligand_ani-2x.xyz
 C   -0.649108   -0.838112   -2.021243
 N   -0.284455   -1.223891   -0.769455
 O    0.196402   -0.488514   -2.837679
 C    1.725728    0.204800   -0.573093
 O    2.929775    0.099970   -1.117996
 N    3.086698   -2.517424    2.323287
 C   -2.326633   -2.164806   -3.296109
 C   -2.423519    0.222155   -3.417267
 O    3.088773   -0.338745    1.905314
 C   -3.376530    0.407467   -0.475905
 C    4.267783   -1.961063    2.787659
 C   -5.970886    1.345046    2.310420
 C   -4.806357    1.523396    1.339314
 C    1.098941   -1.527321    1.168627
 C    1.092366   -1.174932   -0.329797
 C    6.436520    0.243641    3.357999
 C    7.317799    1.294239    3.585128
 C    6.961568    2.591947    3.227322
 C   -2.138050   -0.907854   -2.408971
 C   -4.463808    0.235627    0.591243
 C   -2.080583    0.853512    0.163474
 C    5.191378    0.478726    2.770558
 C    4.838072    1.785257    2.413098
 C   -1.726135   -1.794580   -4.661650
 O   -1.673774    0.406033    1.220419
 C   -1.898120   -0.262900   -4.784964
 O   -1.404766    1.725746   -0.577965
 C    4.271985   -0.627307    2.537926
 C   -3.143516   -0.918122   -1.243053
 O    1.235291    1.276462   -0.278136
 C    2.439635   -1.519895    1.819067
 C    5.720707    2.834019    2.641560
 H   -0.973822   -1.326192   -0.040743
 H    3.261871    1.005354   -1.245332
 H   -3.403022   -2.347714   -3.404562
 H   -1.880982   -3.057972   -2.844650
 H   -3.510287    0.367041   -3.475535
 H   -1.975521    1.166055   -3.093033
 H   -3.677347    1.180254   -1.192006
 H    5.020303   -2.566784    3.271574
 H   -5.743462    0.576953    3.058725
 H   -6.883338    1.038944    1.784954
 H   -6.188252    2.276329    2.843370
 H   -3.920423    1.866463    1.888481
 H   -5.048865    2.310991    0.613551
 H    0.427575   -0.835037    1.690540
 H    0.701888   -2.538498    1.284925
 H    1.699494   -1.890149   -0.895600
 H    6.721217   -0.767306    3.638319
 H    8.284323    1.100392    4.042244
 H    7.649518    3.414588    3.404421
 H   -4.126264   -0.521217    1.311347
 H   -5.371155   -0.158432    0.111225
 H    3.869410    1.971656    1.957330
 H   -0.665111   -2.051115   -4.688011
 H   -2.216880   -2.338092   -5.475957
 H   -0.941775    0.207936   -5.014103
 H   -2.601519    0.008218   -5.580270
 H   -0.470622    1.728072   -0.262529
 H   -4.110747   -1.203127   -1.674555
 H   -2.899532   -1.726902   -0.538247
 H    5.439944    3.846912    2.361292
