18 
2ybk_ligand_aiqm1.xyz
 C   -2.194889   -0.202885   -0.765948
 O   -2.499805    1.085337   -0.958512
 C   -0.724590   -0.428761   -0.486714
 O   -3.002603   -1.098307   -0.816577
 C   -0.264957    0.328264    0.755905
 O   -0.484844   -1.809403   -0.333026
 C    1.188722    0.019305    1.078535
 O    3.412770    0.172441    0.323365
 C    2.146442    0.542916    0.043756
 O    1.864429    1.217207   -0.914339
 H   -3.446338    1.128115   -1.148113
 H   -0.172169   -0.059434   -1.357085
 H   -0.881116    0.026519    1.605448
 H   -0.407343    1.396230    0.586818
 H   -1.329262   -2.261196   -0.435138
 H    1.483747    0.458466    2.034707
 H    1.345234   -1.056983    1.162673
 H    3.966371    0.542269   -0.375956
