18 
2ybp_ligand_ani-2x.xyz
 C   -2.215641   -0.232765   -0.752952
 O   -2.631448    1.038390   -0.763312
 C   -0.720767   -0.379519   -0.514891
 O   -2.955167   -1.175253   -0.929890
 C   -0.257401    0.411416    0.710227
 O   -0.420743   -1.740605   -0.344462
 C    1.174281    0.054110    1.087304
 O    3.436365    0.121953    0.404035
 C    2.184746    0.466446    0.046560
 O    1.949395    1.048107   -0.987870
 H   -3.588308    1.021164   -0.933028
 H   -0.209074    0.021754   -1.401805
 H   -0.911296    0.168272    1.556572
 H   -0.364249    1.480843    0.505286
 H   -1.209207   -2.229767   -0.626466
 H    1.462904    0.528598    2.032468
 H    1.260129   -1.030695    1.226018
 H    4.015281    0.427653   -0.313993
