18 
2ybs_ligand_dft.xyz
 C   -2.220717   -0.223211   -0.094760
 C    0.021897    0.015148    0.991310
 C    1.438445    0.563797    0.862416
 C    2.308769   -0.255612   -0.058198
 O   -3.163540    0.536713   -0.072466
 O   -2.332780   -1.542589    0.084382
 O   -0.800484    1.596428   -0.665363
 O    1.977735   -1.259024   -0.646088
 C   -0.791496    0.242518   -0.295674
 O    3.547241    0.261969   -0.159486
 H   -0.481313    0.530650    1.817701
 H    0.046287   -1.054488    1.219223
 H    1.934114    0.601987    1.838957
 H    1.412308    1.592485    0.487505
 H   -3.275146   -1.730344    0.224018
 H   -1.694992    1.923293   -0.478262
 H   -0.344339   -0.349837   -1.102167
 H    4.036310   -0.317567   -0.765359
