18 
2ybs_ligand_xtb.xyz
 C   -2.227167    0.399064   -0.547010
 C    0.006971   -0.698097   -0.454107
 C    1.298695   -0.848093    0.342099
 C    2.182265    0.368060    0.242065
 O   -3.283636   -0.010687   -0.136140
 O   -2.064928    0.956948   -1.739751
 O   -1.244305   -0.131792    1.559060
 O    1.943277    1.371425   -0.373545
 C   -0.945386    0.287954    0.255514
 O    3.316051    0.204690    0.936497
 H   -0.483691   -1.669845   -0.532710
 H    0.219857   -0.315809   -1.452159
 H    1.873753   -1.709550   -0.001131
 H    1.062311   -1.003777    1.397169
 H   -2.908331    0.996367   -2.220006
 H   -2.155722   -0.465899    1.553753
 H   -0.460748    1.270625    0.298599
 H    3.870733    0.998114    0.871605
