46 
2ybu_ligand_dft.xyz
 O   14.737176   12.644662  -62.608582
 C   13.558238   12.337404  -62.648578
 C   12.821698   11.901077  -63.797935
 N   12.729853   12.396147  -61.505267
 N   13.140266   11.880537  -65.136748
 C   11.571103   11.349953  -63.716814
 C   14.252609   12.594227  -65.741824
 C   12.076621   11.330928  -65.754950
 N   11.100469   10.970593  -64.928767
 N   10.907183   11.254559  -62.516914
 C    9.605349   10.617594  -62.460056
 C   11.443166   11.848639  -61.383106
 O   10.819158   11.889510  -60.334680
 C   13.308195   13.041184  -60.312379
 C   13.674697   14.514044  -60.521949
 C   12.512592   15.507827  -60.616231
 N   11.463169   15.121381  -61.570850
 C   11.834545   15.094649  -62.940172
 C   10.209662   14.826682  -61.026088
 O   12.947212   15.436924  -63.291613
 C   10.780454   14.593648  -63.788838
 N   10.783508   14.351834  -65.147540
 C    9.585484   14.215769  -63.235278
 C    9.614324   13.842425  -65.395045
 N    8.827927   13.735108  -64.259637
 N    9.258548   14.315155  -61.915371
 C    7.972897   13.873321  -61.410165
 O    9.939475   14.991617  -59.853398
 H   14.323005   12.307698  -66.792497
 H   14.073200   13.668774  -65.654736
 H   15.173013   12.338569  -65.217125
 H   12.043280   11.217618  -66.829841
 H    9.261424   10.657193  -61.428080
 H    8.903932   11.140413  -63.118157
 H    9.682466    9.580634  -62.796206
 H   12.577812   12.918045  -59.513383
 H   14.214497   12.488620  -60.050694
 H   14.272820   14.816613  -59.653631
 H   14.318532   14.606766  -61.395783
 H   12.013542   15.618632  -59.655174
 H   12.903805   16.481020  -60.923935
 H    9.253824   13.508513  -66.356847
 H    7.891077   13.367827  -64.207302
 H    7.984701   14.012278  -60.330833
 H    7.161175   14.465811  -61.846337
 H    7.824310   12.811577  -61.631662
