46 
2ybu_ligand_ani-2x.xyz
 O   14.953747   12.664058  -62.630883
 C   13.800393   12.291963  -62.803381
 C   13.250455   11.654579  -63.970673
 N   12.837609   12.479661  -61.784815
 N   13.788879   11.334479  -65.194460
 C   11.936096   11.243959  -64.022815
 C   15.153958   11.561831  -65.641175
 C   12.776621   10.761869  -65.894548
 N   11.642508   10.684264  -65.224954
 N   11.081469   11.377125  -62.958853
 C    9.700408   10.931118  -63.054652
 C   11.522135   11.970456  -61.781791
 O   10.803946   12.032892  -60.801513
 C   13.298928   13.184226  -60.578655
 C   13.523943   14.690220  -60.769320
 C   12.322644   15.620570  -60.568309
 N   11.151661   15.310192  -61.394975
 C   11.265782   15.577244  -62.785096
 C   10.013287   14.839262  -60.710648
 O   12.242765   16.164231  -63.210115
 C   10.129216   15.084103  -63.540316
 N    9.890198   15.067107  -64.900500
 C    9.080644   14.522078  -62.862851
 C    8.717416   14.517690  -65.021184
 N    8.157554   14.164894  -63.807623
 N    8.984773   14.355422  -61.513314
 C    7.888365   13.622798  -60.900851
 O    9.932638   14.845149  -59.497946
 H   15.166444   12.276617  -66.468248
 H   15.727475   11.962946  -64.805079
 H   15.595721   10.617728  -65.968925
 H   12.930537   10.411312  -66.907770
 H    9.315963   10.866048  -62.039339
 H    9.109415   11.647013  -63.632974
 H    9.666980    9.956277  -63.545542
 H   12.565843   12.973241  -59.799086
 H   14.249798   12.728248  -60.293872
 H   14.275061   15.005813  -60.033774
 H   13.968151   14.864840  -61.752703
 H   11.971495   15.581228  -59.537144
 H   12.633346   16.643942  -60.797336
 H    8.202819   14.338180  -65.957263
 H    7.256855   13.734119  -63.653638
 H    8.070387   13.633079  -59.828774
 H    6.927977   14.103306  -61.115100
 H    7.869695   12.586624  -61.258219
