46 
2ybu_ligand_xtb.xyz
 O   14.729644   12.751101  -62.655615
 C   13.555812   12.449916  -62.693220
 C   12.800663   12.041206  -63.839590
 N   12.755304   12.442803  -61.539770
 N   13.075852   12.062050  -65.182307
 C   11.551369   11.453874  -63.730285
 C   14.203767   12.718551  -65.778062
 C   12.013172   11.511228  -65.786210
 N   11.073717   11.114999  -64.946823
 N   10.938103   11.302333  -62.522777
 C    9.707075   10.551721  -62.418525
 C   11.506650   11.859886  -61.394875
 O   10.922453   11.831965  -60.331268
 C   13.351410   13.041442  -60.343870
 C   13.677325   14.522808  -60.534070
 C   12.454917   15.440684  -60.576791
 N   11.442263   15.008979  -61.540607
 C   11.827280   15.033110  -62.894324
 C   10.205418   14.691419  -61.011592
 O   12.912879   15.449922  -63.225277
 C   10.790977   14.512392  -63.749852
 N   10.776576   14.310383  -65.105190
 C    9.580055   14.107520  -63.214874
 C    9.616580   13.808530  -65.373281
 N    8.829843   13.660797  -64.254980
 N    9.258606   14.191404  -61.902113
 C    7.953159   13.814611  -61.408523
 O    9.925584   14.849605  -59.846998
 H   14.387137   12.309853  -66.770028
 H   14.003134   13.789864  -65.851158
 H   15.074655   12.575568  -65.139485
 H   11.934517   11.401452  -66.848978
 H    9.256068   10.776631  -61.453555
 H    9.052113   10.828180  -63.243350
 H    9.914120    9.481846  -62.481136
 H   12.641855   12.895686  -59.527844
 H   14.278706   12.502671  -60.129666
 H   14.294241   14.841014  -59.692909
 H   14.260821   14.646631  -61.445622
 H   11.961830   15.468934  -59.604206
 H   12.780914   16.446736  -60.854784
 H    9.283229   13.524122  -66.349434
 H    7.894714   13.291074  -64.217319
 H    7.984450   13.905465  -60.323809
 H    7.184779   14.480613  -61.807429
 H    7.728262   12.782425  -61.678617
