56 
2ycf_ligand_xtb.xyz
 N    8.960736    2.273536   -0.743103
 N    9.429858    0.179244    0.012309
 N    7.702393    0.451035   -1.557712
 N    7.126201   -0.565438   -1.116210
 N    1.174105   -0.522306    0.838002
 N   -0.978948   -0.085011    1.429151
 N   -7.117521    0.755553    0.411640
 N   -7.966407   -0.087495    0.770759
 N   -8.802900   -0.183849   -1.424756
 N   -9.063875   -1.996782   -0.075087
 C    8.679109    1.028553   -0.733289
 C    6.102213   -1.098620   -1.970862
 C    6.401099   -2.581968   -2.211087
 C    4.789531   -0.931155   -1.236320
 C    3.690232   -0.374962   -1.873344
 C    2.481330   -0.233864   -1.218295
 C    2.358584   -0.639876    0.106681
 C    3.466616   -1.186296    0.753297
 C    4.666635   -1.331164    0.088405
 C   -0.049474   -0.052596    0.411908
 C   -2.320788    0.301371    1.388331
 C   -3.054370    0.215404    2.570369
 C   -4.386849    0.576047    2.598704
 C   -5.012617    1.042909    1.451936
 C   -4.282357    1.118900    0.272876
 C   -2.951021    0.754047    0.232796
 C   -6.468821    1.453796    1.486520
 C   -6.616008    2.958656    1.241539
 C   -8.593073   -0.822378   -0.247231
 O   -0.277816    0.337320   -0.708435
 O   10.302862    0.767791    0.937724
 O   -9.299490   -0.963206   -2.477914
 H    8.417573    2.817174   -1.400723
 H    9.001704   -0.663272    0.371963
 H    1.250756   -0.842667    1.793140
 H   -0.675197   -0.410319    2.336196
 H   -8.127170    0.500025   -1.738218
 H   -8.947955   -2.356467    0.863127
 H    6.066850   -0.556773   -2.927779
 H    7.333245   -2.691934   -2.760488
 H    5.593054   -3.023489   -2.788079
 H    6.486681   -3.104648   -1.262436
 H    3.772575   -0.050125   -2.899998
 H    1.632900    0.190727   -1.726624
 H    3.385575   -1.499065    1.785574
 H    5.517990   -1.748848    0.603034
 H   -2.578256   -0.139788    3.474283
 H   -4.940110    0.498229    3.523235
 H   -4.764274    1.459719   -0.630059
 H   -2.394893    0.817779   -0.686523
 H   -6.911848    1.180044    2.456234
 H   -6.226545    3.217960    0.261251
 H   -7.663999    3.244996    1.292458
 H   -6.060324    3.504071    1.999634
 H   10.283823    1.714073    0.691304
 H   -9.541323   -1.803596   -2.040209
