56 
2ycf_ligand_aiqm1.xyz
 N   10.272854    1.359839   -1.505156
 N    9.246452    0.495511    0.361297
 N    8.297202    0.021104   -1.784788
 N    7.214465   -0.046821   -1.186762
 N    1.202657   -0.548041    0.901134
 N   -0.980300   -0.235220    1.496222
 N   -7.293810    0.293761    0.573503
 N   -8.522439    0.437847    0.639764
 N   -8.561670   -0.347017   -1.620394
 N  -10.387544   -0.760650   -0.286963
 C    9.304475    0.706772   -1.003589
 C    6.170229   -0.809370   -1.936100
 C    6.648172   -2.240650   -2.143450
 C    4.867605   -0.716014   -1.187400
 C    3.730658   -0.205223   -1.812919
 C    2.496901   -0.130290   -1.169000
 C    2.393928   -0.578222    0.152214
 C    3.528736   -1.085763    0.791079
 C    4.748990   -1.156912    0.132504
 C   -0.041767   -0.120959    0.494445
 C   -2.345337    0.104033    1.446882
 C   -3.082810   -0.071490    2.620223
 C   -4.438128    0.237068    2.656853
 C   -5.090514    0.730777    1.527957
 C   -4.343896    0.898673    0.359574
 C   -2.988005    0.591993    0.303095
 C   -6.549676    1.093728    1.592798
 C   -6.816760    2.574429    1.357532
 C   -9.209905   -0.295329   -0.401802
 O   -0.283231    0.306878   -0.618446
 O   10.158933    1.306460    1.068282
 O   -9.212835   -1.195892   -2.539499
 H   10.216792    1.356901   -2.519032
 H    8.320024    0.616298    0.749520
 H    1.291987   -0.893394    1.840285
 H   -0.670602   -0.589532    2.383865
 H   -7.587035   -0.609330   -1.552110
 H  -10.755413   -0.572268    0.640485
 H    6.061435   -0.322169   -2.910037
 H    7.618032   -2.249777   -2.644255
 H    5.926086   -2.785191   -2.748815
 H    6.742216   -2.759266   -1.187159
 H    3.806914    0.145943   -2.835817
 H    1.635025    0.267366   -1.679852
 H    3.455670   -1.428744    1.818526
 H    5.614271   -1.544414    0.656746
 H   -2.596967   -0.453844    3.512117
 H   -4.988486    0.089828    3.578240
 H   -4.836625    1.264340   -0.534380
 H   -2.433954    0.728645   -0.611846
 H   -6.948682    0.807915    2.571616
 H   -6.407008    2.893574    0.397569
 H   -7.890087    2.773642    1.364559
 H   -6.336587    3.163148    2.136998
 H   10.650284    1.740715    0.345872
 H  -10.020924   -1.444397   -2.052588
