27 
2ydm_ligand_aiqm1.xyz
 C   12.910679   -8.674627  -21.562105
 O   11.846825   -9.184861  -21.243583
 C   14.048960   -8.591261  -20.582342
 C   15.206831   -9.244300  -20.757924
 C   13.741612   -7.804933  -19.355939
Se   13.780458   -5.855028  -19.796716
 N   13.100455   -8.124030  -22.790223
 C   11.991914   -8.080915  -23.728477
 C   11.827094   -9.401437  -24.463691
 O   12.667230  -10.251996  -24.582618
 C   12.399560   -6.966155  -24.706267
 C   13.926076   -7.047142  -24.694381
 C   14.253734   -7.335126  -23.230782
 O   10.606498   -9.473644  -25.033096
 H   15.975396   -9.212552  -19.995854
 H   15.389753   -9.841125  -21.640730
 H   12.729221   -8.018206  -19.011052
 H   14.475593   -7.969171  -18.567625
 H   13.329214   -5.428621  -18.491543
 H   11.057442   -7.866361  -23.213998
 H   11.960169   -7.100697  -25.692980
 H   12.066403   -6.010184  -24.302581
 H   14.261544   -7.878578  -25.315392
 H   14.402107   -6.134738  -25.049450
 H   15.180087   -7.895059  -23.112764
 H   14.333309   -6.414258  -22.641533
 H   10.568835  -10.320991  -25.495353
