53 
2ydw_ligand_ani-2x.xyz
 C   -2.842820    4.783487    1.096030
 C    8.088133    0.152894    0.814513
 C   -1.565983    4.429768    0.669087
 C   -3.849681    3.823512    1.129815
 C   -4.928157   -0.261222   -2.327215
 C    7.633388    1.410694    0.430060
 C    7.271683   -0.961359    0.635542
 C   -5.027229   -1.625960   -2.073382
 C   -1.294901    3.125650    0.276411
 C   -3.584660    2.521201    0.723518
 C   -3.957646    0.481724   -1.679151
 C    6.367194    1.549009   -0.130632
 C    6.005294   -0.819251    0.077965
 C   -4.155326   -2.223207   -1.177309
 C   -2.309463    2.157583    0.275663
 C   -3.044921   -0.093469   -0.774695
 C    5.543130    0.438697   -0.308634
 C   -3.173449   -1.481189   -0.526589
 C   -0.940191   -2.002422    0.410686
 C   -2.539165   -3.185889    1.255726
 C   -1.980822    0.759228   -0.141978
 C    1.978075   -0.130626   -0.751879
 C   -0.275223   -0.899666   -0.362157
 C   -3.886606   -3.707202    1.620308
 C    4.189932    0.599335   -0.950248
 N   -0.394052   -2.860857    1.216072
 N   -1.411694   -3.610139    1.760772
 N   -0.747507    0.426125    0.033150
 N   -2.298785   -2.158139    0.368777
 N    1.153391   -1.013495   -0.140296
 O    1.634087    0.712591   -1.552351
 O    3.263564   -0.324605   -0.358720
 H   -3.050505    5.803609    1.407258
 H    9.076844    0.039670    1.252027
 H   -0.772815    5.174090    0.650576
 H   -4.847807    4.090663    1.465911
 H   -5.608849    0.221319   -3.022108
 H    8.265581    2.285033    0.566617
 H    7.621814   -1.947247    0.933859
 H   -5.780424   -2.226796   -2.573367
 H   -0.294014    2.842932   -0.038035
 H   -4.378581    1.778230    0.740683
 H   -3.885156    1.549520   -1.867138
 H    6.012943    2.533291   -0.432660
 H    5.364427   -1.686193   -0.056434
 H   -4.216556   -3.292661   -1.001226
 H   -0.478811   -1.051509   -1.439356
 H   -4.249466   -4.433583    0.883677
 H   -3.813971   -4.216163    2.582656
 H   -4.620222   -2.898823    1.683973
 H    3.813113    1.617770   -0.820096
 H    4.225379    0.405911   -2.027070
 H    1.524701   -1.788057    0.394079
