53 
2yem_ligand_xtb.xyz
 C   -4.939631    4.049480    1.826013
 C    6.192724   -2.389063    0.893348
 C   -3.741271    4.541108    1.331952
 C   -5.236555    2.702299    1.702152
 C   -4.354296   -0.706484   -2.254552
 C    7.026062   -1.685215    0.039074
 C    4.879834   -1.985348    1.055435
 C   -3.762096   -1.953529   -2.128321
 C   -2.846601    3.691464    0.711737
 C   -4.347564    1.848029    1.076019
 C   -3.830436    0.377042   -1.577598
 C    6.545644   -0.584971   -0.646172
 C    4.395347   -0.884340    0.368655
 C   -2.643892   -2.110504   -1.333010
 C   -3.145338    2.337266    0.568551
 C   -2.702339    0.245134   -0.768142
 C    5.225920   -0.176622   -0.487863
 C   -2.108273   -1.020298   -0.654460
 C    0.087727   -0.312198    0.188180
 C   -0.600818   -2.178791    1.024767
 C   -2.172736    1.447537   -0.082863
 C    2.387107    1.097536   -1.210326
 C    0.067335    0.957454   -0.602621
 C   -1.423999   -3.358511    1.373845
 C    4.733441    1.012397   -1.277947
 N    0.992393   -0.732656    1.014811
 N    0.556788   -1.894100    1.539523
 N   -0.947488    1.788241   -0.034942
 N   -0.969563   -1.185632    0.142252
 N    1.336806    1.633550   -0.528343
 O    2.277289    0.343995   -2.145212
 O    3.549120    1.582897   -0.736807
 H   -5.639374    4.713937    2.310711
 H    6.568848   -3.248162    1.429590
 H   -3.506189    5.590243    1.432201
 H   -6.164280    2.314432    2.096314
 H   -5.222074   -0.579508   -2.883203
 H    8.053366   -1.993196   -0.092379
 H    4.218076   -2.523927    1.716794
 H   -4.165074   -2.803402   -2.657378
 H   -1.908202    4.053125    0.322513
 H   -4.580795    0.795736    0.996171
 H   -4.283267    1.351961   -1.681317
 H    7.196430   -0.036382   -1.312800
 H    3.365978   -0.590536    0.512531
 H   -2.162891   -3.072289   -1.253645
 H   -0.119066    0.715672   -1.663946
 H   -1.236529   -4.178934    0.681296
 H   -1.145135   -3.688972    2.370537
 H   -2.483697   -3.110415    1.349298
 H    5.480603    1.810838   -1.273842
 H    4.537343    0.704549   -2.313991
 H    1.540969    2.086391    0.349964
