33 
2yer_ligand_dft.xyz
 C   -2.422612   34.487842   12.253352
 C    1.310904   37.328591   12.609047
 C    2.530575   37.896222   12.295277
 C   -1.148500   34.605760   11.644850
 C    1.352837   36.063370   10.558534
 C   -2.617845   35.616167   13.014526
 C    0.698623   36.409415   11.740633
 C    3.204585   37.569281   11.109595
 C    2.589897   36.626186   10.257496
 C   -0.593561   35.803139   12.053780
 C    5.096424   37.813245    9.587674
 C    4.483056   38.171871   10.735916
 C    4.489138   36.841637    8.727004
 C    2.902898   35.378123    8.071471
 C    5.094542   39.240057   11.604595
 N    4.935070   36.375947    7.595716
 N   -1.502286   36.398010   12.899759
 N    3.961407   35.491219    7.211456
 N    3.268222   36.289666    9.079483
 O    1.911358   34.677268    7.986590
 O    5.406770   38.694894   12.873950
 H   -3.115240   33.664673   12.151043
 H   -0.668041   33.881222   11.002056
 H   -3.454662   35.925612   13.622923
 H    0.847460   37.571129   13.561135
 H    3.004133   38.571218   12.998362
 H    0.905234   35.370876    9.857145
 H   -1.413090   37.329777   13.270350
 H    6.044579   38.235825    9.275115
 H    5.993386   39.630326   11.107257
 H    4.379654   40.073636   11.698519
 H    4.057419   34.973145    6.354197
 H    5.758667   39.406648   13.421194
