33 
2yer_ligand_ani-2x.xyz
 C   -2.412126   34.468517   12.221882
 C    1.297820   37.358875   12.615785
 C    2.510890   37.926398   12.318247
 C   -1.132608   34.601814   11.621802
 C    1.362517   36.081957   10.579249
 C   -2.622249   35.588617   12.985651
 C    0.695398   36.427152   11.743878
 C    3.194480   37.606375   11.122719
 C    2.589993   36.656326   10.275295
 C   -0.593417   35.800634   12.043593
 C    5.074419   37.831716    9.579855
 C    4.460997   38.208729   10.727760
 C    4.478840   36.844593    8.725987
 C    2.892143   35.375599    8.123132
 C    5.102982   39.254570   11.601043
 N    4.909456   36.351650    7.597073
 N   -1.513437   36.383399   12.882314
 N    3.939659   35.464549    7.244224
 N    3.264036   36.300212    9.103071
 O    1.902148   34.668483    8.053648
 O    5.510323   38.631557   12.807658
 H   -3.102004   33.643931   12.105246
 H   -0.643573   33.889728   10.967523
 H   -3.465722   35.879263   13.595998
 H    0.812664   37.622740   13.553293
 H    2.956286   38.623992   13.020529
 H    0.943906   35.367716    9.877961
 H   -1.438890   37.319078   13.246416
 H    6.021674   38.256399    9.271870
 H    5.961595   39.690194   11.069648
 H    4.381918   40.063547   11.794517
 H    4.011681   34.924627    6.395646
 H    5.939203   39.299062   13.357489
