32 
2yex_ligand_xtb.xyz
 C   -2.414102   36.076280   13.293637
 C    1.200222   38.388326   12.525186
 C    2.353534   38.976572   12.128392
 C   -1.397588   36.980790   13.331920
 C    1.386071   36.767345   10.724305
 C   -2.126354   35.217512   12.182385
 C    0.664270   37.257812   11.843722
 C    3.098907   38.499738   11.010622
 C    2.546604   37.357910   10.325275
 C   -0.522039   36.642134   12.240758
 C    4.976339   38.559297    9.483596
 C    4.288978   39.089317   10.596068
 C    4.450710   37.482619    8.836263
 C    2.974138   35.832251    8.357204
 C    4.870690   40.276061   11.296582
 N    4.978186   36.766867    7.779854
 N   -1.023831   35.547269   11.568765
 N    3.968591   35.867367    7.393148
 N    3.272637   36.891382    9.217591
 O    2.056883   35.063602    8.386484
 H   -3.263912   36.000682   13.946336
 H    0.667820   38.779253   13.378412
 H    2.730626   39.830700   12.668693
 H   -1.264238   37.786602   14.028706
 H    0.976294   35.915129   10.208971
 H   -2.718838   34.382477   11.849973
 H    5.904258   38.989227    9.147340
 H    4.176425   41.115004   11.274030
 H    5.080612   40.041899   12.339307
 H    5.797683   40.582922   10.819668
 H    5.412973   37.276630    7.018706
 H    4.248249   35.023025    6.915801
