32 
2yex_ligand_ani-2x.xyz
 C   -2.440005   36.012675   13.225889
 C    1.217709   38.416521   12.555895
 C    2.386801   39.005872   12.156660
 C   -1.425558   36.939021   13.310212
 C    1.383859   36.812142   10.765466
 C   -2.102479   35.195006   12.089892
 C    0.700776   37.307556   11.860159
 C    3.105170   38.515541   11.036079
 C    2.569262   37.400125   10.356111
 C   -0.532753   36.651229   12.244011
 C    4.975850   38.572408    9.477311
 C    4.340006   39.104185   10.571961
 C    4.426475   37.471870    8.825751
 C    2.930608   35.816409    8.412348
 C    4.931934   40.289960   11.273999
 N    4.918426   36.742059    7.766212
 N   -0.977877   35.577669   11.517312
 N    3.875895   35.859224    7.393812
 N    3.267782   36.901500    9.247685
 O    2.038987   35.010970    8.529661
 H   -3.306962   35.908044   13.864094
 H    0.680709   38.805991   13.416886
 H    2.767470   39.861832   12.707574
 H   -1.319077   37.731681   14.038614
 H    0.978661   35.960214   10.235711
 H   -2.669902   34.350446   11.705241
 H    5.905656   38.991701    9.105860
 H    4.248456   41.147402   11.265190
 H    5.163756   40.064958   12.321881
 H    5.861182   40.599403   10.785954
 H    5.255838   37.287427    6.979613
 H    4.194144   34.952958    7.074656
