15 
2yfa_ligand_ani-2x.xyz
 C   -1.268740   -0.512682    0.209809
 O   -0.916287   -0.862453    1.310028
 O   -2.347686   -1.021286   -0.408192
 C   -0.599874    0.589386   -0.606943
 O   -1.277415    1.808661   -0.379694
 C    0.831748    0.764959   -0.154199
 C    1.618785   -0.500500   -0.373536
 O    2.853149   -0.437246    0.151395
 O    1.206688   -1.472700   -0.963364
 H   -2.717454   -1.682064    0.200991
 H   -0.629845    0.296702   -1.664264
 H   -2.177891    1.704413   -0.713552
 H    0.859737    1.031932    0.906895
 H    1.296606    1.588634   -0.706551
 H    3.268478   -1.295856   -0.034823
