23 
2ygu_ligand_aiqm1.xyz
 C   60.578439   62.472101  -27.370519
 C   60.587605   63.720004  -28.245988
 C   61.629802   63.634672  -29.356108
 C   61.623680   64.824262  -30.312207
 C   62.029730   66.145207  -29.670599
 C   62.077313   67.295405  -30.668662
 C   62.484119   68.617528  -30.028941
 H   60.354336   61.582278  -27.962946
 H   61.553448   62.321740  -26.902782
 H   59.832921   62.544599  -26.578120
 H   60.777065   64.599791  -27.625094
 H   59.599709   63.865645  -28.693232
 H   61.457654   62.719052  -29.930001
 H   62.625337   63.533998  -28.907219
 H   60.623513   64.930954  -30.749520
 H   62.301386   64.613386  -31.145122
 H   63.013182   66.032020  -29.200171
 H   61.330885   66.396814  -28.865162
 H   61.095317   67.399959  -31.139122
 H   62.776848   67.044986  -31.472175
 H   61.783475   68.900368  -29.240603
 H   63.476803   68.543866  -29.579949
 H   62.507032   69.423964  -30.762659
