53 
2yit_ligand_aiqm1.xyz
 N   47.620577  -17.106023   -7.870972
 C   47.466782  -17.848043   -6.709842
 C   47.053888  -19.173596   -6.533631
 C   46.942510  -19.647734   -5.244008
 C   47.228012  -18.826659   -4.128443
 O   47.064215  -19.440009   -2.920888
 C   47.339107  -18.657743   -1.772535
 C   47.636181  -17.513831   -4.294645
 C   47.764046  -17.019082   -5.612046
 C   48.173482  -15.755100   -6.147981
 C   48.101801  -15.851284   -7.510353
 C   48.403673  -14.779343   -8.479176
 O   49.119040  -13.834955   -8.198165
 N   47.794202  -14.955760   -9.699028
 C   47.822187  -14.091329  -10.809221
 C   46.889604  -14.315478  -11.827686
 C   46.877887  -13.521374  -12.962881
 C   48.749192  -13.054505  -10.945805
 C   48.721763  -12.258154  -12.088060
 C   47.794327  -12.472795  -13.113396
 C   47.771441  -11.632660  -14.329544
 C   48.415009  -10.269982  -14.312038
 C   49.796673  -10.259494  -14.976778
 C   50.432988   -8.875245  -14.938197
 N   47.191950  -12.135057  -15.366647
 N   47.199057  -11.412997  -16.529282
 C   46.369282  -11.833655  -17.566663
 N   46.095929  -10.977206  -18.475631
 N   45.943904  -13.140370  -17.464605
 H   47.800930  -17.522657   -8.768350
 H   46.824710  -19.815414   -7.374727
 H   46.629608  -20.665268   -5.053914
 H   47.854780  -16.873037   -3.453018
 H   45.534688  -11.393939  -19.212386
 H   47.157361  -19.305258   -0.919815
 H   48.379122  -18.322417   -1.761247
 H   46.679062  -17.788426   -1.718134
 H   48.486341  -14.866031   -5.625898
 H   47.090816  -15.674993   -9.726450
 H   46.165673  -15.118090  -11.728807
 H   49.472039  -12.864048  -10.167838
 H   46.152729  -13.702741  -13.744769
 H   49.449366  -11.462523  -12.176915
 H   47.763757   -9.544328  -14.813165
 H   48.509312   -9.912855  -13.285901
 H   50.437351  -10.979266  -14.459627
 H   49.706352  -10.609744  -16.007113
 H   51.419011   -8.883008  -15.400352
 H   49.819476   -8.146715  -15.470622
 H   50.547092   -8.526096  -13.909557
 H   47.252958  -10.404482  -16.488721
 H   45.712807  -13.581137  -18.337127
 H   46.458953  -13.715064  -16.817397
