79 
2yiu_ligand_ani-2x.xyz
 C   -2.015148   -2.429105   -0.637645
 C   -2.741111   -2.389966    0.506577
 C   -3.030215   -3.609989    1.337669
 C   -3.295950   -1.126476    0.998188
 C   -2.890716    0.089729    0.242049
 C   -3.174782    1.417806    0.625507
 C   -5.208677    1.686774    1.739025
 C   -2.785834    2.491426   -0.163636
 C   -2.073170    2.273606   -1.341728
 C   -1.944507    4.590684   -1.865971
 C   -1.740243    0.978565   -1.735340
 C   -2.152723   -0.086022   -0.934961
 C   -1.336742   -3.624691   -1.227408
 C    0.062748   -3.879346   -0.623183
 C    0.975470   -2.641181   -0.595534
 C    2.154815   -2.800501    0.375638
 C    1.844533   -2.458595    1.855508
 C    1.253469   -1.049965    2.029394
 C    2.026814    0.027609    1.316249
 C    1.548154    0.731148    0.282794
 C    2.205601    1.885838   -0.308080
 C    1.635781    2.595916   -1.295878
 C    2.150400    3.810281   -1.936258
 C    1.396193    4.358557   -2.899640
 C    1.662069    5.599195   -3.690743
 C    1.479745   -2.288179   -1.999725
 C    3.909477   -4.347906    0.790631
 C    0.966681   -3.486642    2.580476
 C    0.625016    0.444334    3.726948
 C    3.478943    4.355708   -1.479313
 O   -1.739675   -1.310046   -1.367041
 O   -4.028442   -1.099296    1.978286
 O   -3.790312    1.705711    1.808555
 O   -1.634467    3.248703   -2.194950
 O   -1.012116    0.743491   -2.858934
 O    2.643480   -4.124737    0.224772
 O    1.225866   -0.791592    3.421129
 H   -2.369332   -4.450692    1.099476
 H   -2.918996   -3.365808    2.397189
 H   -4.064906   -3.946299    1.208847
 H   -5.573972    0.692476    1.467133
 H   -5.575688    2.435140    1.022575
 H   -5.565680    1.944891    2.738292
 H   -3.040429    3.491135    0.172654
 H   -1.451780    4.884192   -0.930770
 H   -1.587660    5.217819   -2.684615
 H   -3.028532    4.729630   -1.768242
 H   -1.255560   -3.460343   -2.307210
 H   -1.951349   -4.522289   -1.086951
 H    0.553903   -4.677317   -1.189874
 H   -0.063550   -4.266590    0.392962
 H    0.400674   -1.785348   -0.237976
 H    2.950440   -2.105743    0.052443
 H    2.813791   -2.417758    2.370357
 H    0.208370   -1.030844    1.658743
 H    3.010681    0.259189    1.724575
 H    0.580203    0.474518   -0.161815
 H    3.178651    2.169626    0.092650
 H    0.681154    2.257973   -1.685603
 H    0.461483    3.857167   -3.147119
 H    1.814450    5.360949   -4.750261
 H    2.534868    6.153198   -3.340879
 H    0.798777    6.272228   -3.644444
 H    0.648980   -2.117348   -2.692811
 H    2.106880   -3.091653   -2.405922
 H    2.076806   -1.368313   -1.972744
 H    4.241392   -5.333590    0.453675
 H    4.642550   -3.596145    0.455665
 H    3.886293   -4.344132    1.890106
 H    1.297621   -4.506541    2.361358
 H    1.013277   -3.329451    3.660869
 H   -0.088996   -3.394001    2.288608
 H   -0.371120    0.528425    3.263464
 H    0.519771    0.500159    4.813949
 H    1.234511    1.291663    3.381440
 H    3.753843    5.277908   -1.997109
 H    3.464831    4.574572   -0.405333
 H    4.283008    3.631293   -1.655603
 H   -0.900383    1.615506   -3.273473
