37 
2yjx_ligand_xtb.xyz
 C    8.591057   10.574197  -26.309780
 C    7.467799    9.992449  -26.879484
 C    8.497352   11.667961  -25.459913
 C    6.204946   10.496340  -26.607058
 C   12.281641   13.856964  -23.636808
 C   13.209911   14.324562  -22.726655
 C   11.659765   15.197925  -21.281460
 C    7.241027   12.173728  -25.169523
 C    6.109340   11.577691  -25.753883
 C   10.946431   14.090105  -23.319972
 C   10.638751   14.775681  -22.117424
 C    8.808633   14.227317  -23.233691
 C    6.772616   13.277802  -24.329688
 C    4.912906   12.301417  -25.301692
 C    7.395700   14.166846  -23.508104
 C    6.558783   15.205628  -22.787619
 C    5.271917   15.506867  -23.550396
 C    4.521830   14.205534  -23.775341
 N   12.917439   14.967256  -21.597130
 N    9.793192   13.773661  -23.971840
 N    9.273002   14.856270  -22.096285
 N    5.390746   13.286637  -24.463435
 O    3.741670   12.133513  -25.563124
 H    9.567180   10.171013  -26.536441
 H    7.578115    9.146021  -27.540914
 H    9.377168   12.129037  -25.043293
 H    5.314585   10.066783  -27.039602
 H   12.568867   13.342945  -24.538909
 H   14.268339   14.182910  -22.898889
 H   11.478851   15.724433  -20.353346
 H    8.717678   15.244572  -21.354066
 H    6.305869   14.850126  -21.782112
 H    7.133647   16.129276  -22.686530
 H    4.652605   16.206870  -22.989569
 H    5.517500   15.956088  -24.514399
 H    4.209905   13.773531  -22.815487
 H    3.629237   14.341045  -24.392133
