37 
2yjx_ligand_dft.xyz
 C    8.561691   10.512725  -26.337268
 C    7.414081    9.917515  -26.861787
 C    8.498954   11.636540  -25.512406
 C    6.159161   10.444537  -26.567826
 C   12.335725   13.969669  -23.636643
 C   13.251313   14.387241  -22.683212
 C   11.653911   15.141055  -21.206802
 C    7.245557   12.156669  -25.201576
 C    6.104686   11.552420  -25.741805
 C   10.986516   14.158282  -23.330722
 C   10.660312   14.753355  -22.101413
 C    8.843733   14.250702  -23.280622
 C    6.790588   13.298830  -24.362677
 C    4.905671   12.288932  -25.290257
 C    7.409378   14.195622  -23.552574
 C    6.573220   15.240082  -22.825451
 C    5.252324   15.524749  -23.537517
 C    4.512741   14.222551  -23.791154
 N   12.934574   14.954762  -21.502188
 N    9.844792   13.864913  -24.043270
 N    9.284056   14.811071  -22.098070
 N    5.393339   13.314781  -24.495339
 O    3.731493   12.087314  -25.525881
 H    9.535276   10.098432  -26.582007
 H    7.501913    9.046828  -27.504362
 H    9.396985   12.112313  -25.142861
 H    5.244488   10.014446  -26.963010
 H   12.651125   13.520331  -24.571676
 H   14.315830   14.264604  -22.865886
 H   11.424754   15.602170  -20.247901
 H    8.701796   15.125621  -21.339343
 H    6.361843   14.912128  -21.795353
 H    7.145629   16.171472  -22.749853
 H    4.631922   16.194276  -22.934741
 H    5.451473   16.023545  -24.492404
 H    4.193665   13.769252  -22.842914
 H    3.621487   14.361264  -24.407226
