48 
2yoh_ligand_dft.xyz
 O    3.753189    2.962493    0.021710
 C    4.467577    1.979112    0.059886
 N    5.843845    2.054749   -0.003668
 C    6.776393    1.012011    0.019558
 O    7.967663    1.244260   -0.051316
 C    6.177456   -0.319122    0.130577
 C    7.099064   -1.500111    0.143861
 C    4.837479   -0.408713    0.199666
 N    3.987003    0.680047    0.182458
 C    2.544381    0.477060    0.204879
 O    2.168630   -0.429167   -0.829854
 C    2.002811   -0.106619    1.516294
 C    0.840081   -0.948621    1.009840
 O    0.392564   -1.906049    1.919538
 C    1.471957   -1.532539   -0.257741
 C    0.523124   -2.130203   -1.283140
 N   -0.583926   -1.270101   -1.651391
 C   -1.727001   -1.271666   -0.894977
 O   -1.884294   -2.007405    0.073925
 N   -2.684079   -0.386007   -1.352966
 C   -3.936721   -0.096400   -0.799397
 C   -4.750295    0.794941   -1.515099
 C   -5.999521    1.149569   -1.040665
 C   -4.395129   -0.632879    0.411018
 C   -5.647781   -0.274468    0.886657
 C   -6.436646    0.608026    0.161585
 N   -7.756486    0.976262    0.670973
 O   -8.424616    1.754512    0.005651
 O   -8.114297    0.484912    1.730916
 H    6.220003    2.991075   -0.082844
 H    7.685828   -1.541563   -0.779522
 H    6.543240   -2.436278    0.247224
 H    7.813689   -1.423491    0.969308
 H    4.337463   -1.368806    0.263745
 H    2.116647    1.456649   -0.009070
 H    1.714526    0.673602    2.222786
 H    2.738192   -0.758032    2.002240
 H    0.027481   -0.268935    0.712947
 H   -0.465326   -2.207605    1.576872
 H    2.177974   -2.323906    0.044348
 H    0.104752   -3.053065   -0.875966
 H    1.079354   -2.381853   -2.190603
 H   -0.349556   -0.446836   -2.186693
 H   -2.510087    0.035071   -2.253848
 H   -4.398885    1.217113   -2.453039
 H   -6.635358    1.834842   -1.586928
 H   -3.777306   -1.327459    0.960806
 H   -6.021231   -0.679875    1.819019
