48 
2yoh_ligand_ani-2x.xyz
 O   -3.779041   -3.156898   -1.228121
 C   -4.405340   -2.143405   -0.993431
 N   -5.778584   -2.102947   -0.944682
 C   -6.598481   -1.008201   -0.659124
 O   -7.808662   -1.131654   -0.641638
 C   -5.868783    0.234406   -0.399045
 C   -6.683604    1.451181   -0.090353
 C   -4.525497    0.220065   -0.457169
 N   -3.791857   -0.918332   -0.750760
 C   -2.320712   -0.934125   -0.736066
 O   -1.817491    0.379482   -0.901799
 C   -1.732207   -1.477222    0.583635
 C   -0.570071   -0.524822    0.838985
 O   -0.174693   -0.454840    2.178750
 C   -1.187325    0.776693    0.319473
 C   -0.246631    1.948217    0.094329
 N    0.992804    1.619174   -0.584844
 C    2.090396    1.217552    0.134755
 O    2.056568    1.100087    1.358546
 N    3.206202    0.974668   -0.630413
 C    4.470396    0.525087   -0.202441
 C    5.402051    0.219864   -1.203871
 C    6.669460   -0.228172   -0.873821
 C    4.819888    0.384645    1.144898
 C    6.090159   -0.061335    1.475903
 C    6.997380   -0.362699    0.469531
 N    8.335871   -0.834603    0.833534
 O    9.111069   -1.091847   -0.071980
 O    8.595231   -0.942166    2.020070
 H   -6.244554   -2.983003   -1.122852
 H   -7.383207    1.663822   -0.905510
 H   -6.056255    2.335566    0.070024
 H   -7.294736    1.291133    0.804219
 H   -3.937790    1.117292   -0.292425
 H   -2.013884   -1.531332   -1.596830
 H   -1.440781   -2.527957    0.502499
 H   -2.461402   -1.375777    1.393898
 H    0.272226   -0.809009    0.188754
 H    0.638320    0.083259    2.179570
 H   -1.967331    1.088325    1.034810
 H    0.023367    2.371430    1.065520
 H   -0.774266    2.713557   -0.482850
 H    0.935530    1.416833   -1.572157
 H    3.139427    1.167446   -1.618653
 H    5.131170    0.326181   -2.251073
 H    7.401538   -0.471471   -1.634720
 H    4.100149    0.625451    1.914959
 H    6.383485   -0.179195    2.512865
