48 
2yoh_ligand_xtb.xyz
 O   -3.421216   -2.657776   -2.161269
 C   -4.135491   -1.888294   -1.561369
 N   -5.502389   -1.933468   -1.640248
 C   -6.435768   -1.114251   -1.009158
 O   -7.619365   -1.283617   -1.188254
 C   -5.827531   -0.093428   -0.162836
 C   -6.743757    0.842148    0.555519
 C   -4.487410   -0.040380   -0.069991
 N   -3.645749   -0.899148   -0.727042
 C   -2.204058   -0.757347   -0.611652
 O   -1.808360    0.568165   -0.904563
 C   -1.676506   -1.096389    0.789887
 C   -0.554824   -0.071192    0.966203
 O   -0.242850    0.177963    2.296827
 C   -1.165988    1.139223    0.227083
 C   -0.173638    2.223415   -0.205779
 N    1.032524    1.714015   -0.812225
 C    2.071539    1.324107   -0.019316
 O    2.060062    1.471605    1.187248
 N    3.123638    0.789022   -0.733617
 C    4.348513    0.339888   -0.262165
 C    5.273156   -0.124915   -1.205071
 C    6.505201   -0.588725   -0.806751
 C    4.683262    0.328572    1.094005
 C    5.917231   -0.136057    1.493364
 C    6.827935   -0.593835    0.547009
 N    8.113194   -1.074791    0.966072
 O    8.877984   -1.463068    0.106225
 O    8.360864   -1.065037    2.154173
 H   -5.878300   -2.657295   -2.244092
 H   -7.363065    1.374972   -0.164014
 H   -6.185375    1.556927    1.152864
 H   -7.415624    0.276579    1.198947
 H   -3.995624    0.707558    0.533485
 H   -1.789423   -1.424870   -1.379220
 H   -1.329691   -2.122865    0.862066
 H   -2.438771   -0.924226    1.550345
 H    0.327143   -0.423189    0.408665
 H    0.578990    0.697215    2.315938
 H   -1.904865    1.615417    0.891082
 H    0.124210    2.788402    0.680565
 H   -0.668713    2.886800   -0.916213
 H    0.955231    1.382932   -1.760252
 H    3.022094    0.757899   -1.738974
 H    5.016444   -0.117700   -2.254538
 H    7.227870   -0.948605   -1.522654
 H    3.974599    0.688547    1.819910
 H    6.192167   -0.150505    2.536680
