27 
2z1w_ligand_ani-2x.xyz
 N   15.549865   17.621537   20.402296
 C   16.746176   17.568307   19.867501
 C   17.074422   17.762127   18.417319
 C   15.845376   18.046836   17.556506
 C   16.198219   18.239923   16.084651
 C   14.976890   18.525681   15.213997
 N   17.713017   17.307529   20.798502
 C   17.071529   17.193651   21.997568
 C   17.659574   16.918227   23.296898
 N   16.715598   16.965863   24.305367
 N   15.321446   16.910377   24.030544
 C   14.756136   17.319802   22.821292
 O   13.568679   17.560823   22.753970
 C   15.743739   17.382629   21.733586
 O   18.836198   16.688238   23.509785
 H   17.799933   18.583740   18.325315
 H   17.594938   16.865699   18.049353
 H   15.132706   17.221628   17.671668
 H   15.337980   18.937448   17.945760
 H   16.918517   19.065105   15.994569
 H   16.711555   17.339720   15.718610
 H   15.253364   18.660649   14.163173
 H   14.255912   17.701583   15.269163
 H   14.463880   19.435726   15.546616
 H   18.711646   17.206899   20.676961
 H   16.953593   16.414262   25.121339
 H   14.782112   17.222992   24.828690
