48 
2z60_ligand_xtb.xyz
 N   16.617467   -9.703041    8.613263
 C   17.313250   -8.951201    7.785158
 C   18.214942   -7.948328    8.181022
 C   18.397186   -7.700156    9.537301
 C   17.656306   -8.452240   10.438004
 C   16.799230   -9.451619    9.901344
 C   17.542344   -8.539141   11.862404
 C   16.662581   -9.558248   12.110740
 N   16.213268  -10.103850   10.937776
 C   18.225471   -7.726169   12.865784
 C   18.308557   -6.327806   12.732603
 C   18.975563   -5.587276   13.699559
 C   19.543745   -6.214950   14.796329
 C   19.447932   -7.585192   14.944983
 C   18.791527   -8.329720   13.980985
 O   17.684485   -5.786906   11.646655
 C   18.937659   -7.166571    7.175136
 C   19.144890   -5.795423    7.344994
 N   19.798914   -5.038694    6.485139
 C   20.271445   -5.595794    5.385630
 C   20.099418   -6.945674    5.083048
 C   19.439023   -7.741635    6.009334
 C   20.723066   -7.563411    3.871316
 O   21.603725   -8.397224    3.984278
 N   20.273567   -7.133956    2.669408
 C   19.168935   -6.232524    2.467307
 C   20.888595   -7.637802    1.463765
 C   17.733162   -4.395365   11.459148
 H   17.260441   -3.857899   12.287814
 H   18.761307   -4.038215   11.335062
 H   17.173709   -4.203494   10.544278
 H   19.054810   -4.514983   13.612295
 H   20.059301   -5.621031   15.536326
 H   19.885922   -8.073196   15.802292
 H   18.724118   -9.403226   14.077982
 H   16.304768   -9.921148   13.055247
 H   15.551055  -10.855299   10.846801
 H   17.139495   -9.143719    6.734891
 H   19.110138   -6.963335    9.872750
 H   18.755458   -5.283208    8.215221
 H   20.815420   -4.938374    4.720109
 H   19.334763   -8.801423    5.827705
 H   18.660367   -6.027905    3.405901
 H   19.516734   -5.287511    2.039239
 H   18.454751   -6.681439    1.771445
 H   21.279504   -6.810868    0.866892
 H   21.703948   -8.298545    1.751428
 H   20.162738   -8.195267    0.866912
