48 
2z60_ligand_aiqm1.xyz
 N   16.618027   -9.807026    8.651411
 C   17.292284   -9.041568    7.798135
 C   18.153699   -7.986329    8.166037
 C   18.332502   -7.704660    9.518700
 C   17.641186   -8.477022   10.451163
 C   16.816527   -9.503830    9.933456
 C   17.537486   -8.532449   11.892998
 C   16.687640   -9.571967   12.163032
 N   16.251443  -10.153399   10.993035
 C   18.215570   -7.711892   12.906080
 C   18.310813   -6.311138   12.799759
 C   18.968187   -5.569202   13.779689
 C   19.531937   -6.218482   14.880084
 C   19.438088   -7.595864   15.010189
 C   18.780525   -8.327337   14.023336
 O   17.712185   -5.755782   11.708609
 C   18.843573   -7.187988    7.124339
 C   18.982151   -5.800943    7.261082
 N   19.605436   -5.011589    6.382570
 C   20.111870   -5.592556    5.289967
 C   20.016328   -6.961107    5.029650
 C   19.389225   -7.764536    5.979889
 C   20.639188   -7.608556    3.824626
 O   21.350234   -8.594293    3.960606
 N   20.391618   -7.043097    2.613454
 C   19.305921   -6.118859    2.342993
 C   21.029809   -7.609206    1.438439
 C   17.817473   -4.354277   11.549895
 H   17.337291   -3.822088   12.375116
 H   18.861321   -4.040167   11.471045
 H   17.297466   -4.126219   10.623308
 H   19.045734   -4.494720   13.700353
 H   20.042737   -5.634332   15.634081
 H   19.871201   -8.100646   15.862000
 H   18.704801   -9.404538   14.109118
 H   16.341924   -9.944979   13.113244
 H   15.601528  -10.911364   10.913302
 H   17.142302   -9.256715    6.745315
 H   18.993677   -6.904238    9.828259
 H   18.565947   -5.305234    8.132708
 H   20.623544   -4.931301    4.599354
 H   19.355903   -8.835350    5.822086
 H   18.755528   -5.887602    3.249266
 H   19.687197   -5.192558    1.908181
 H   18.613263   -6.570499    1.625555
 H   21.386586   -6.803346    0.794930
 H   21.862414   -8.229411    1.754890
 H   20.323708   -8.219741    0.867670
