12 
2z9g_ligand_aiqm1.xyz
 C   21.295872   -1.745802   18.728636
 C   20.811813   -2.934790   18.189438
 C   19.504786   -3.002102   17.713222
 C   18.682321   -1.880508   17.776179
 C   19.166483   -0.691299   18.315555
 C   20.473104   -0.623965   18.791723
 H   22.311587   -1.693756   19.098773
 H   21.451401   -3.806511   18.140684
 H   19.128162   -3.926103   17.293983
 H   17.666681   -1.933205   17.405963
 H   18.527365    0.180757   18.364610
 H   20.849125    0.300383   19.210733
