38 
2za0_ligand_aiqm1.xyz
 O   47.266460   28.849163   57.574988
 C   46.741595   29.558902   58.392950
 O   47.424730   30.156346   59.391953
 C   48.822352   29.842747   59.399839
 C   45.289789   29.891667   58.448602
 C   44.367202   28.845814   58.530420
 O   44.854903   27.580457   58.631675
 C   42.998316   29.089957   58.554771
 C   44.822611   31.216564   58.396933
 C   45.772108   32.376375   58.284802
 C   43.452288   31.463329   58.420665
 C   42.550350   30.405340   58.497126
 O   41.223101   30.745198   58.476135
 C   40.294517   29.847669   58.942867
 C   40.396608   29.268838   60.208167
 C   39.192888   29.592692   58.131781
 O   39.104322   30.160787   56.905585
 C   38.190983   28.760612   58.628831
 O   37.138257   28.568573   57.770314
 C   38.287022   28.177129   59.885860
 C   39.398044   28.425521   60.696012
 C   39.513922   27.802298   62.060186
 H   48.968930   28.768193   59.476069
 H   49.294479   30.200248   58.486219
 H   49.235983   30.348277   60.266720
 H   44.124292   26.960068   58.579299
 H   42.299747   28.263766   58.608558
 H   46.373285   32.484591   59.186380
 H   46.461667   32.240090   57.450505
 H   45.217352   33.300252   58.125759
 H   43.061409   32.470285   58.361840
 H   41.275619   29.485725   60.801990
 H   38.263116   29.892923   56.522609
 H   36.484796   28.004797   58.188644
 H   37.492033   27.527766   60.237671
 H   40.414579   27.189812   62.138911
 H   39.576914   28.567363   62.836161
 H   38.651931   27.169568   62.274802
