32 
2zas_ligand_aiqm1.xyz
 O   16.260564   23.367497   42.409153
 C   16.103724   24.684763   42.072094
 C   15.023867   25.364735   42.618864
 C   14.822691   26.708535   42.307313
 C   16.974892   25.345717   41.212726
 C   16.763744   26.684806   40.911276
 C   15.688347   27.397171   41.450748
 C   15.524201   28.881665   41.109697
 C   16.667555   29.662027   41.790374
 C   14.200476   29.465588   41.644333
 C   15.533411   29.043558   39.583979
 C   16.391570   29.925647   38.919409
 C   16.338569   30.060343   37.529651
 C   15.431851   29.318896   36.783682
 C   14.576898   28.433648   37.433715
 C   14.628076   28.299733   38.816033
 H   17.035942   23.026502   41.958705
 H   14.350246   24.838939   43.282403
 H   13.971718   27.211506   42.744663
 H   17.814805   24.814557   40.777731
 H   17.442059   27.183493   40.230694
 H   16.613931   29.511400   42.870513
 H   17.655513   29.333279   41.453556
 H   16.580233   30.735068   41.598929
 H   13.324040   28.952224   41.238064
 H   14.155715   29.409515   42.735466
 H   14.133339   30.517854   41.360918
 H   17.109236   30.515613   39.472804
 H   17.011570   30.749977   37.036242
 H   15.392277   29.425371   35.708025
 H   13.869802   27.846282   36.862110
 H   13.965641   27.600089   39.311827
