48 
2zb0_ligand_aiqm1.xyz
 N   49.564230   37.212313   26.481956
 C   49.363372   36.203473   27.017476
 C   49.133571   34.944359   27.680793
 C   50.214363   34.084812   27.891531
 C   49.988104   32.872229   28.531316
 C   48.707484   32.527698   28.949363
 C   47.841432   34.614269   28.092039
 C   47.629279   33.394274   28.734922
 N   46.359435   32.972472   29.165007
 C   45.199125   33.703146   29.256680
 O   45.120959   34.880073   28.958496
 C   44.028351   32.940965   29.784245
 C   43.883905   31.558564   29.650509
 C   43.024795   33.671602   30.420184
 C   41.906787   33.032824   30.939680
 C   41.758422   31.645092   30.819801
 C   42.760931   30.919885   30.163075
 C   40.583350   30.931040   31.394109
 C   40.822076   29.881353   32.280271
 C   39.768993   29.179460   32.865948
 C   40.062571   28.093423   33.792488
 O   39.028071   27.433616   34.382005
 C   39.666232   26.513032   35.154859
 C   38.851341   25.586070   35.968571
 N   40.951103   26.593532   35.054935
 N   41.213970   27.632292   34.159366
 C   38.451273   29.516824   32.556128
 C   38.211597   30.547890   31.658503
 C   39.255057   31.270772   31.066300
 C   38.927821   32.359851   30.078863
 H   51.200391   34.372991   27.559145
 H   50.807774   32.190739   28.708248
 H   48.543789   31.578726   29.448191
 H   47.024579   35.299987   27.927900
 H   46.324965   32.054651   29.569613
 H   44.621595   30.971638   29.113424
 H   43.138894   34.744254   30.494373
 H   41.142788   33.611851   31.444298
 H   42.655849   29.847669   30.053375
 H   41.836641   29.603807   32.532325
 H   38.227810   26.143486   36.666687
 H   38.196218   24.996134   35.328406
 H   39.511797   24.923793   36.520841
 H   37.631428   28.973921   33.006647
 H   37.189641   30.799461   31.400674
 H   38.948709   33.346337   30.546255
 H   39.638482   32.375946   29.254692
 H   37.926749   32.210904   29.674390
