47 
2zb1_ligand_aiqm1.xyz
 O   45.547644   35.401806   31.103682
 C   45.566446   34.206776   31.356989
 N   46.715629   33.521394   31.555867
 C   48.008465   34.187017   31.483327
 C   49.078940   33.290237   32.033571
 C   49.564155   32.135677   31.201983
 C   50.458502   33.323271   31.444582
 C   44.305203   33.407075   31.494135
 C   44.243054   32.032621   31.257513
 C   43.041092   31.348582   31.400773
 C   43.142980   34.083936   31.862944
 C   41.943214   33.401798   32.013183
 C   41.874328   32.021420   31.783755
 C   40.605404   31.260854   31.965374
 C   39.415078   31.600182   31.290274
 C   39.350898   32.738124   30.305894
 C   38.267140   30.832627   31.524441
 C   38.271186   29.756878   32.401354
 C   40.611770   30.167230   32.830386
 C   39.455820   29.420403   33.056747
 C   39.502975   28.289137   33.974719
 N   40.511515   27.826708   34.639609
 N   40.032204   26.735637   35.367869
 O   38.362783   27.580485   34.203659
 C   38.777182   26.629185   35.083639
 C   37.790731   25.645607   35.578573
 H   46.677284   32.564484   31.852828
 H   47.948275   35.128568   32.033069
 H   48.218701   34.452345   30.441980
 H   49.019522   33.119988   33.103085
 H   49.140565   32.035570   30.212138
 H   49.806202   31.208320   31.698844
 H   51.299281   33.203396   32.110115
 H   50.624589   33.995360   30.613772
 H   45.121582   31.489880   30.927934
 H   43.002555   30.282063   31.214386
 H   43.200049   35.150896   32.027848
 H   41.051455   33.939650   32.313602
 H   39.212389   33.697198   30.809007
 H   40.265507   32.808359   29.720436
 H   38.509504   32.600223   29.626445
 H   37.353468   31.084523   30.998766
 H   37.372751   29.179316   32.572529
 H   41.520912   29.889846   33.346490
 H   38.282769   24.964882   36.267373
 H   36.973844   26.153584   36.090080
 H   37.368956   25.080979   34.747630
