47 
2zb1_ligand_xtb.xyz
 O   46.110381   34.625593   32.829318
 C   46.051202   33.465417   32.468617
 N   47.151609   32.736418   32.158801
 C   48.476854   33.318628   32.137641
 C   48.956592   33.575411   30.726506
 C   48.394625   34.748910   29.980397
 C   49.818009   34.769113   30.443575
 C   44.755219   32.735385   32.345907
 C   44.632288   31.362323   32.537457
 C   43.397863   30.752115   32.425491
 C   43.614745   33.482355   32.065456
 C   42.384623   32.869581   31.938426
 C   42.262412   31.492898   32.107143
 C   40.954032   30.818627   32.003086
 C   40.139894   30.937279   30.869006
 C   40.559695   31.725198   29.665352
 C   38.913151   30.281485   30.852841
 C   38.485302   29.518121   31.919137
 C   40.534873   30.034235   33.069207
 C   39.304828   29.384504   33.037899
 C   38.902144   28.577680   34.165171
 N   39.588344   28.337471   35.241579
 N   38.837918   27.538736   36.022753
 O   37.696304   27.953620   34.201736
 C   37.727569   27.321751   35.398470
 C   36.583980   26.505034   35.851752
 H   47.038341   31.832060   31.730645
 H   49.167704   32.649165   32.662383
 H   48.403843   34.261010   32.684996
 H   49.156060   32.673918   30.157567
 H   47.683202   35.371928   30.499927
 H   48.196205   34.643937   28.924469
 H   50.602021   34.671860   29.707999
 H   50.074752   35.414165   31.269481
 H   45.492056   30.765742   32.807521
 H   43.307169   29.686418   32.577471
 H   43.715988   34.551225   31.952294
 H   41.506248   33.462405   31.732892
 H   40.146395   32.733020   29.709061
 H   41.641884   31.804839   29.602394
 H   40.184456   31.254416   28.758881
 H   38.284112   30.371271   29.978627
 H   37.528902   29.018441   31.889115
 H   41.151581   29.930103   33.948102
 H   36.815577   26.090857   36.827505
 H   35.687626   27.120171   35.915394
 H   36.395923   25.699262   35.143754
