28 
2zjf_ligand_xtb.xyz
 N   -3.598309   -0.159948   19.856676
 C   -4.134902    1.109316   19.862167
 N   -3.146921    2.068215   19.804825
 O   -5.318145    1.350156   19.910800
 C   -4.265293   -1.388220   19.904902
 C   -3.485765   -2.543964   19.888689
 C   -4.080033   -3.789920   19.933882
 C   -5.458830   -3.901598   19.995844
 C   -6.234185   -2.754932   20.012000
 C   -5.650471   -1.502012   19.967124
 C   -3.283199    3.460012   19.789913
 C   -4.514381    4.106307   19.834892
 C   -4.564394    5.488226   19.816335
 C   -3.404341    6.240968   19.753515
 C   -2.178216    5.599099   19.708728
 C   -2.115770    4.219460   19.726680
 H   -2.592419   -0.245355   19.813920
 H   -2.187467    1.753634   19.767026
 H   -2.407730   -2.462374   19.840342
 H   -3.462568   -4.676069   19.920590
 H   -5.923243   -4.875393   20.031171
 H   -7.310149   -2.832482   20.060194
 H   -6.256980   -0.612880   19.979895
 H   -5.418750    3.524677   19.883786
 H   -5.524943    5.980300   19.851596
 H   -3.453126    7.319222   19.739476
 H   -1.264897    6.173665   19.659548
 H   -1.154873    3.722890   19.691483
