28 
2zjw_ligand_aiqm1.xyz
 C   36.356375   -3.999795   11.370565
 C   36.784932   -3.961351   10.046554
 C   37.063114   -5.178000    9.349744
 C   36.896509   -6.384559   10.020635
 O   36.474799   -6.436692   11.325447
 C   36.188936   -5.300359   12.055473
 C   37.491700   -5.139550    8.025754
 C   37.758790   -6.336732    7.360822
 C   37.589741   -7.538541    8.038588
 C   37.158111   -7.586065    9.373020
 C   36.951658   -2.754789    9.375731
 O   37.373324   -2.702642    8.070898
 C   37.658969   -3.838982    7.340798
 C   36.089526   -2.802601   12.035545
 C   36.258733   -1.600757   11.357859
 C   36.690273   -1.553253   10.023404
 O   36.997513   -8.753081   10.020096
 O   37.820803   -8.770209    7.489158
 O   38.022477   -3.710708    6.205458
 O   36.850995   -0.386283    9.376303
 O   36.028021   -0.369123   11.907476
 O   35.825109   -5.428649   13.190708
 H   38.092244   -6.310055    6.331313
 H   35.756134   -2.829267   13.065080
 H   37.225778   -9.462958    9.410721
 H   38.111494   -8.668709    6.580827
 H   36.622782    0.323602    9.985676
 H   35.737160   -0.470691   12.815747
