34 
2zv2_ligand_ani-2x.xyz
 C    1.073029   -8.278524  -26.253722
 C    1.025395   -9.692966  -26.460801
 C   -0.150210  -10.246560  -27.026167
 C   -1.214895   -9.445268  -27.383200
 C   -1.166019   -8.065293  -27.192466
 C   -0.041431   -7.485972  -26.634133
 C   -0.040805   -6.020232  -26.444146
 O   -0.952385   -5.279478  -26.751871
 N    1.135038   -5.516754  -25.855983
 C    1.424170   -4.186768  -25.548256
 C    0.698484   -3.008439  -25.712327
 C    1.313084   -1.842718  -25.281855
 C    2.600827   -1.859520  -24.711232
 C    3.309873   -3.037632  -24.554551
 C    2.707444   -4.230166  -24.983268
 N    3.191190   -5.527020  -24.943129
 C    2.246735   -6.258511  -25.461707
 C    2.227200   -7.696196  -25.666592
 C    3.307133   -8.483185  -25.294793
 C    3.270233   -9.851739  -25.524871
 C    2.165954  -10.463801  -26.104301
 C    2.195592  -11.952383  -26.270225
 O    1.265222  -12.694880  -26.087400
 O    3.397589  -12.475864  -26.618154
 H   -0.205275  -11.320366  -27.163054
 H   -2.104473   -9.896320  -27.816195
 H   -1.999179   -7.427260  -27.471746
 H   -0.290101   -3.026598  -26.154534
 H    0.792858   -0.894907  -25.385588
 H    3.049179   -0.924588  -24.385795
 H    4.303276   -3.046662  -24.113840
 H    4.178463   -8.016912  -24.843370
 H    4.115271  -10.460714  -25.206981
 H    4.007632  -11.769901  -26.872647
