29 
2zvj_ligand_dft.xyz
 O    0.821769    3.815136    0.188155
 C    0.637197    2.626944    0.136225
 O    1.737819    1.796796    0.139090
 C    1.623390    0.449435    0.037887
 C    2.822772   -0.263669   -0.007290
 O    3.999396    0.394446    0.069347
 C    2.768433   -1.650894   -0.140024
 O    3.987278   -2.264941   -0.177852
 C    1.548104   -2.317730   -0.235343
 C   -0.664523    1.971905    0.091319
 C   -0.809368    0.630228    0.025971
 C    0.383380   -0.205405   -0.031309
 C    0.366549   -1.598698   -0.183917
 C   -2.168444    0.030251    0.014045
 C   -2.545348   -0.912449    0.976911
 C   -3.833689   -1.435021    0.983110
 C   -4.758368   -1.028390    0.024284
 C   -4.390852   -0.091649   -0.936995
 C   -3.104113    0.437389   -0.940497
 H    4.705660   -0.264668    0.011507
 H    3.875319   -3.215764   -0.288874
 H    1.528997   -3.397790   -0.355299
 H   -1.519602    2.635219    0.148100
 H   -0.581154   -2.116284   -0.273553
 H   -1.829223   -1.221536    1.732971
 H   -4.117563   -2.157847    1.741994
 H   -5.763235   -1.439613    0.028182
 H   -5.106564    0.229024   -1.687827
 H   -2.813466    1.164285   -1.693379
