29 
2zvj_ligand_aiqm1.xyz
 O  -13.073243    2.667284  -21.239282
 C  -12.992869    3.831928  -21.521018
 O  -14.084367    4.640838  -21.270997
 C  -14.081276    5.960547  -21.607214
 C  -15.272991    6.644515  -21.363584
 O  -16.315880    5.984719  -20.812078
 C  -15.347567    7.987066  -21.707357
 O  -16.548062    8.587212  -21.440947
 C  -14.261786    8.642622  -22.288827
 C  -11.817888    4.477370  -22.098041
 C  -11.773540    5.796072  -22.389586
 C  -12.968814    6.600630  -22.168506
 C  -13.081417    7.955079  -22.518742
 C  -10.527008    6.397789  -22.934864
 C   -9.914729    7.491608  -22.313702
 C   -8.726798    8.016080  -22.818731
 C   -8.140284    7.459192  -23.951934
 C   -8.739733    6.366061  -24.572829
 C   -9.920629    5.834101  -24.063398
 H  -17.042738    6.610898  -20.731360
 H  -16.514108    9.503274  -21.723386
 H  -14.348765    9.686750  -22.563554
 H  -10.970171    3.827325  -22.256228
 H  -12.253717    8.466311  -22.981629
 H  -10.363233    7.921197  -21.425851
 H   -8.261686    8.857807  -22.323705
 H   -7.220144    7.869929  -24.343934
 H   -8.286673    5.922291  -25.448771
 H  -10.380785    4.976305  -24.538844
