29 
2zvj_ligand_xtb.xyz
 O  -13.058431    2.653085  -21.233344
 C  -12.980810    3.820956  -21.522501
 O  -14.059717    4.624499  -21.276367
 C  -14.067329    5.932855  -21.609009
 C  -15.249052    6.642830  -21.355602
 O  -16.302995    6.018994  -20.784828
 C  -15.315077    7.991350  -21.710606
 O  -16.494679    8.634201  -21.442780
 C  -14.231969    8.618933  -22.315831
 C  -11.814492    4.459660  -22.102665
 C  -11.777669    5.777553  -22.407120
 C  -12.961478    6.576464  -22.190110
 C  -13.070427    7.921415  -22.554569
 C  -10.545875    6.383631  -22.940397
 C   -9.960879    7.477406  -22.307726
 C   -8.786220    8.019165  -22.796807
 C   -8.187809    7.482177  -23.924554
 C   -8.761954    6.391369  -24.555859
 C   -9.930386    5.839426  -24.063474
 H  -17.022236    6.660214  -20.696445
 H  -16.438236    9.550544  -21.734549
 H  -14.311607    9.658786  -22.599886
 H  -10.956800    3.821795  -22.247877
 H  -12.239061    8.408977  -23.037030
 H  -10.417582    7.884996  -21.417452
 H   -8.335810    8.862917  -22.295077
 H   -7.273549    7.910273  -24.307615
 H   -8.296257    5.967140  -25.432944
 H  -10.382516    4.991193  -24.555875
