23 
3adt_ligand_ani-2x.xyz
 O    7.942388   56.071158   11.133148
 O    8.736266   55.579305   13.159323
 O    5.964344   62.983630   12.216462
 C    8.312692   62.851741   12.032872
 C    9.498039   62.149048   12.042304
 C    9.888855   58.602265   12.579560
 C    7.026599   60.837177   12.467606
 C    7.557179   57.608452   12.939973
 N   10.449600   59.832820   12.332937
 C    8.042206   56.332494   12.306543
 C    7.082541   62.200075   12.244585
 C    8.530029   58.714521   12.671031
 C    9.444739   60.773199   12.266944
 C    8.221008   60.105483   12.479089
 H    9.057881   54.816519   12.648514
 H    5.188936   62.428468   12.373327
 H    8.303384   63.924583   11.861972
 H   10.446729   62.656923   11.879641
 H   10.500838   57.714285   12.674678
 H    6.064512   60.347512   12.630544
 H    6.586376   57.838700   12.489892
 H    7.407975   57.458034   14.017398
 H   11.433882   60.011608   12.223660
