23 
3adt_ligand_aiqm1.xyz
 O    6.250084   57.133855   11.847675
 O    8.290030   56.294551   11.443779
 O    5.923601   62.323537   11.396996
 C    8.247959   62.555705   11.706699
 C    9.487399   62.076504   12.084863
 C   10.208777   58.777753   13.370557
 C    7.165085   60.451933   12.291099
 C    8.004210   57.476404   13.475177
 N   10.642077   60.028526   13.003038
 C    7.390309   56.964803   12.193480
 C    7.098936   61.746270   11.806935
 C    8.854354   58.682737   13.202807
 C    9.562870   60.767279   12.570425
 C    8.420972   59.951218   12.683367
 H    7.839697   56.051438   10.624786
 H    5.219769   61.676150   11.477652
 H    8.135050   63.559472   11.321634
 H   10.368011   62.700706   12.001094
 H   10.905480   58.036066   13.729554
 H    6.273409   59.837374   12.351156
 H    7.184086   57.718487   14.152584
 H    8.620452   56.688641   13.906587
 H   11.594380   60.338590   13.030055
