25 
3adv_ligand_aiqm1.xyz
 O   16.191214  -13.389139   -4.307930
 C   17.180368  -12.459431   -4.521016
 C   16.815571  -11.116322   -4.308085
 C   17.729670  -10.096022   -4.492256
 C   19.022888  -10.439975   -4.895314
 N   20.122571   -9.657005   -5.153045
 C   21.173480  -10.471483   -5.521911
 C   20.782065  -11.781941   -5.513627
 C   19.400950  -11.780806   -5.112421
 C   18.457933  -12.804775   -4.920191
 C   21.616708  -12.982764   -5.849729
 C   23.033082  -12.627156   -6.272150
 N   23.784325  -13.854391   -6.545754
 H   16.553895  -14.261761   -4.474055
 H   15.802350  -10.904732   -3.996243
 H   17.443006   -9.065071   -4.326168
 H   20.163946   -8.659298   -5.074689
 H   22.133715  -10.044507   -5.765003
 H   18.734949  -13.841482   -5.081559
 H   21.672776  -13.653829   -4.987845
 H   21.140299  -13.551014   -6.657602
 H   22.998338  -11.937631   -7.126859
 H   23.529158  -12.103433   -5.453976
 H   23.401497  -14.311200   -7.364999
 H   24.747248  -13.635834   -6.764573
