25 
3adv_ligand_ani-2x.xyz
 O   16.251043  -13.423963   -4.295466
 C   17.207362  -12.474339   -4.513215
 C   16.820788  -11.133655   -4.305347
 C   17.714876  -10.098935   -4.498105
 C   19.013679  -10.420351   -4.905465
 N   20.098050   -9.617080   -5.169478
 C   21.163745  -10.412442   -5.541596
 C   20.794455  -11.727818   -5.525424
 C   19.411767  -11.753407   -5.117322
 C   18.492669  -12.794738   -4.916552
 C   21.601492  -12.949546   -5.854014
 C   23.038561  -12.659009   -6.269153
 N   23.739858  -13.913494   -6.519593
 H   16.633249  -14.293829   -4.468577
 H   15.800232  -10.938222   -3.989215
 H   17.414246   -9.066150   -4.336779
 H   20.111898   -8.613051   -5.105712
 H   22.121126   -9.966963   -5.790313
 H   18.784604  -13.834604   -5.074492
 H   21.626453  -13.634706   -4.995831
 H   21.107639  -13.512487   -6.661056
 H   23.038484  -11.968159   -7.130745
 H   23.546387  -12.145567   -5.443804
 H   23.375941  -14.345963   -7.364797
 H   24.723394  -13.732522   -6.694949
