28 
3anr_ligand_dft.xyz
 C   38.030688   27.102621  -17.747057
 C   38.182214   27.604549  -16.337601
 N   37.223113   28.373265  -15.827807
 C   37.345835   28.828810  -14.568194
 C   38.418148   28.556665  -13.733570
 C   39.437672   27.752166  -14.245324
 C   39.299898   27.280975  -15.563182
 N   40.405474   26.508573  -15.878989
 C   41.254691   26.470632  -14.793160
 C   42.482149   25.812241  -14.667241
 C   40.692279   27.232582  -13.749825
 C   41.385387   27.337588  -12.538173
 C   42.597279   26.696340  -12.392347
 C   43.143710   25.937382  -13.450663
 O   44.339447   25.359714  -13.174862
 C   44.950181   24.584065  -14.179713
 H   37.092532   27.473729  -18.163049
 H   38.855578   27.445935  -18.384301
 H   38.018343   26.005757  -17.781258
 H   36.526079   29.450589  -14.216842
 H   38.454203   28.957211  -12.725599
 H   40.563482   26.048940  -16.759432
 H   42.886984   25.234263  -15.489475
 H   40.974663   27.918527  -11.717677
 H   43.161363   26.755695  -11.468289
 H   44.323469   23.728659  -14.464029
 H   45.170329   25.183770  -15.072593
 H   45.884808   24.218757  -13.752748
