16 
3ao1_ligand_ani-2x.xyz
 C   19.699200    8.113501   10.535666
 C   20.871536    7.752982   11.222665
 C   22.127182    8.167479   10.780602
 C   22.261189    8.960834    9.631517
 C   21.111858    9.302748    8.961862
 C   19.861852    8.883875    9.410029
 O   18.892400    9.389335    8.588556
 C   19.590430    9.951911    7.481521
 O   20.958894   10.086118    7.845855
 O   20.702629    6.985108   12.334926
 H   18.729717    7.787756   10.897024
 H   23.018896    7.876059   11.333797
 H   23.235902    9.291753    9.286481
 H   19.176115   10.937313    7.256077
 H   19.504711    9.280813    6.614550
 H   21.566088    6.798416   12.723871
