27 
3ao4_ligand_xtb.xyz
 C   -0.836644   11.481016   -6.525225
 C   -0.890523   10.388839   -5.644278
 C   -1.447446   10.539318   -4.377699
 C   -1.963577   11.754684   -3.940030
 C   -1.902982   12.812808   -4.813153
 C   -1.346922   12.672879   -6.086253
 O   -1.414916   13.877706   -6.743203
 C   -2.030719   14.773506   -5.846181
 O   -2.332235   14.105360   -4.640911
 C   -0.355194    9.111368   -6.085950
 C   -0.278250    7.893254   -5.374766
 C    0.316324    7.007931   -6.249197
 N    0.559978    7.692257   -7.392618
 N    0.159696    8.963710   -7.301935
 N    0.576572    5.653130   -6.136327
 C    1.149963    7.194752   -8.600115
 H   -0.406552   11.361754   -7.503893
 H   -1.485824    9.694075   -3.709759
 H   -2.394047   11.866144   -2.958804
 H   -2.960280   15.163528   -6.292933
 H   -1.350079   15.615860   -5.639333
 H   -0.606377    7.682769   -4.378510
 H    0.569986    5.327508   -5.181379
 H    1.390828    5.337393   -6.643849
 H    2.195994    6.915730   -8.441965
 H    0.598084    6.326875   -8.966847
 H    1.103940    7.993747   -9.336390
