14 
3aqt_ligand_ani-2x.xyz
 C   54.562636   28.439743   21.856587
 C   54.493680   29.561465   21.035902
 C   55.620227   29.950255   20.318699
 C   56.813670   29.228703   20.414623
 C   56.858480   28.112523   21.239936
 C   55.745882   27.704999   21.966017
 O   53.429400   28.107130   22.533188
 O   55.495292   31.054804   19.533435
 H   53.570577   30.126219   20.956884
 H   57.690628   29.539607   19.850576
 H   57.782379   27.546235   21.319915
 H   55.792077   26.828834   22.609474
 H   53.597724   27.319303   23.064551
 H   56.335148   31.224479   19.089416
