38 
3aru_ligand_xtb.xyz
 C    0.683246   11.063787   12.866658
 C    0.129926   11.597476   14.166133
 O    0.048817   12.775378   14.401983
 C   -0.307544   10.521951   15.138263
 C   -1.131808   11.078630   16.297027
 C   -1.208877   10.122452   17.483120
 C   -1.966814    8.838586   17.146672
 N   -2.016059    7.944010   18.298983
 C   -3.148429    8.026381   19.110736
 O   -4.066804    8.786469   18.862924
 C   -3.060862    7.117205   20.212490
 N   -3.915274    6.845113   21.254451
 C   -5.194757    7.460604   21.477819
 C   -3.305182    5.901240   21.993689
 N   -2.130774    5.539546   21.522056
 C   -1.964967    6.290004   20.411029
 N   -0.902475    6.289095   19.562841
 C    0.221720    5.413019   19.809780
 C   -0.900302    7.134250   18.474554
 O    0.030705    7.166222   17.697622
 H   -0.147881   10.738278   12.242942
 H    1.226389   11.844056   12.340320
 H    1.330412   10.209087   13.043253
 H    0.601912   10.055306   15.528453
 H   -0.853993    9.754215   14.589198
 H   -2.138570   11.316235   15.948631
 H   -0.670212   12.012430   16.623574
 H   -1.718316   10.617828   18.312412
 H   -0.200285    9.858170   17.808082
 H   -1.470155    8.300696   16.338630
 H   -2.998415    9.068135   16.874423
 H   -5.362241    8.192332   20.688720
 H   -5.987088    6.710714   21.451921
 H   -5.211460    7.960382   22.447573
 H   -3.737442    5.485607   22.882019
 H    0.659357    5.642321   20.781037
 H   -0.115056    4.376736   19.811101
 H    0.950159    5.574155   19.017981
