38 
3aru_ligand_aiqm1.xyz
 C    1.177615   10.809128   13.134299
 C    0.082319   11.347490   14.028748
 O   -0.495163   12.383144   13.779708
 C   -0.236808   10.510216   15.250340
 C   -1.278626   11.130350   16.170234
 C   -1.527781   10.289610   17.419437
 C   -2.288594    8.997091   17.135320
 N   -2.212098    8.060066   18.268549
 C   -3.242932    8.115569   19.209374
 O   -4.166852    8.904723   19.115601
 C   -3.052807    7.142697   20.255624
 N   -3.791791    6.818336   21.375421
 C   -5.044788    7.419651   21.797387
 C   -3.114507    5.832591   21.991200
 N   -1.989477    5.484436   21.368948
 C   -1.963287    6.306327   20.292479
 N   -0.983376    6.338423   19.336902
 C    0.169706    5.459094   19.433075
 C   -1.072174    7.247023   18.306334
 O   -0.207982    7.352179   17.452406
 H    0.988734    9.763283   12.887128
 H    1.239355   11.407429   12.227486
 H    2.131846   10.845623   13.664252
 H    0.698048   10.330345   15.791550
 H   -0.548193    9.521822   14.895000
 H   -2.209969   11.288320   15.619500
 H   -0.937037   12.123745   16.468999
 H   -2.087928   10.869653   18.158116
 H   -0.566105   10.031706   17.876114
 H   -1.879934    8.480738   16.268769
 H   -3.342725    9.195702   16.951827
 H   -4.907306    8.482109   21.974957
 H   -5.798311    7.290236   21.026139
 H   -5.367054    6.930649   22.714062
 H   -3.471075    5.383078   22.902952
 H    0.712820    5.663317   20.355306
 H   -0.163244    4.422332   19.446731
 H    0.798080    5.649868   18.568826
