44 
3arx_ligand_ani-2x.xyz
 N   18.782647  -11.195157   19.662594
 C   17.804733  -10.346815   20.220126
 C   18.287134   -9.658717   21.389613
 C   19.536209   -9.898980   21.914079
 N   20.399257  -10.814212   21.360714
 C   20.023082  -11.524479   20.229350
 N   17.722298   -8.700725   22.198494
 C   18.659014   -8.431437   23.145225
 N   19.766760   -9.132655   23.013583
 C   18.431956  -11.904457   18.424078
 C   17.755456  -13.246919   18.699615
 C   17.440861  -14.054174   17.437654
 C   16.434130  -13.374432   16.505067
 C   15.910328  -14.270648   15.393765
 C   16.934466  -15.046891   14.594902
 O   14.724483  -14.346414   15.152534
 O   16.696699  -10.257333   19.708664
 O   20.748855  -12.378118   19.755519
 C   21.701270  -11.099807   21.944591
 C   16.406447   -8.096029   22.040645
 C   15.257536   -8.995116   22.494862
 C   13.919355   -8.260469   22.455004
 H   18.469921   -7.700365   23.922407
 H   19.359494  -12.048271   17.866889
 H   17.772299  -11.241569   17.862340
 H   16.830236  -13.056891   19.258436
 H   18.413156  -13.839520   19.345482
 H   17.036943  -15.027801   17.744371
 H   18.370307  -14.263845   16.889315
 H   16.891986  -12.496480   16.026080
 H   15.561373  -13.023351   17.066420
 H   17.391344  -15.823038   15.220409
 H   16.449255  -15.516959   13.737836
 H   17.742806  -14.390928   14.249795
 H   21.749763  -12.143930   22.260153
 H   22.484727  -10.926111   21.204961
 H   21.827593  -10.435681   22.801296
 H   16.283567   -7.836617   20.984838
 H   16.420986   -7.165976   22.616760
 H   15.456837   -9.342904   23.514814
 H   15.222908   -9.876202   21.845199
 H   13.931353   -7.380248   23.109582
 H   13.680468   -7.919622   21.440354
 H   13.103404   -8.911106   22.786087
