44 
3arx_ligand_xtb.xyz
 N   18.766281  -11.174831   19.625454
 C   17.822871  -10.265394   20.112494
 C   18.286443   -9.633874   21.309358
 C   19.519281   -9.924999   21.875520
 N   20.365524  -10.837327   21.328004
 C   20.000200  -11.499570   20.176228
 N   17.730048   -8.674480   22.123430
 C   18.625411   -8.461056   23.103157
 N   19.717036   -9.188010   22.990255
 C   18.402661  -11.899367   18.412485
 C   17.739238  -13.233873   18.751635
 C   17.433410  -14.066250   17.508401
 C   16.361902  -13.423655   16.621816
 C   15.911496  -14.340568   15.504314
 C   17.005012  -14.822260   14.583757
 O   14.760002  -14.665470   15.363089
 O   16.763915  -10.073877   19.544631
 O   20.724775  -12.323414   19.659822
 C   21.638846  -11.113949   21.956051
 C   16.419260   -8.099342   21.975221
 C   15.338825   -9.026593   22.538280
 C   13.960353   -8.393028   22.415109
 H   18.466740   -7.755784   23.894555
 H   19.315711  -12.068636   17.838798
 H   17.716431  -11.256608   17.859741
 H   16.818319  -13.042138   19.306111
 H   18.418259  -13.797859   19.394645
 H   17.079099  -15.047974   17.830432
 H   18.355472  -14.207842   16.942815
 H   16.752583  -12.510546   16.168791
 H   15.491092  -13.162854   17.225907
 H   17.535215  -15.639438   15.069983
 H   16.572627  -15.196825   13.659604
 H   17.716484  -14.029620   14.371023
 H   21.477033  -11.515084   22.956424
 H   22.164417  -11.839368   21.338693
 H   22.214058  -10.192119   22.035146
 H   16.235054   -7.940125   20.909961
 H   16.404790   -7.138142   22.495768
 H   15.559281   -9.244128   23.586296
 H   15.361248   -9.964156   21.980713
 H   13.916765   -7.454156   22.963104
 H   13.727965   -8.196427   21.371649
 H   13.202270   -9.060380   22.815827
