44 
3arx_ligand_aiqm1.xyz
 N   19.051555  -11.080185   19.628758
 C   18.008621  -10.280357   20.096598
 C   18.343221   -9.640293   21.343230
 C   19.552009   -9.836274   21.968468
 N   20.511478  -10.659479   21.448119
 C   20.272270  -11.332590   20.271284
 N   17.657130   -8.762509   22.156799
 C   18.473360   -8.504111   23.193558
 N   19.646211   -9.133080   23.121082
 C   18.826799  -11.763115   18.345008
 C   18.105886  -13.092147   18.538001
 C   17.755530  -13.789272   17.225823
 C   16.650229  -13.083913   16.435092
 C   16.271804  -13.844144   15.179243
 C   15.637882  -15.206411   15.360307
 O   16.485452  -13.394714   14.073767
 O   16.957434  -10.169466   19.482545
 O   21.082695  -12.111074   19.805653
 C   21.771982  -10.896839   22.134172
 C   16.286169   -8.298983   21.966530
 C   15.269630   -9.362626   22.357065
 C   13.846181   -8.857930   22.163453
 H   18.184875   -7.842816   23.994953
 H   19.796398  -11.916616   17.877891
 H   18.243884  -11.084837   17.724329
 H   17.193423  -12.917400   19.118008
 H   18.747789  -13.746926   19.133207
 H   17.428412  -14.808960   17.448244
 H   18.652397  -13.878976   16.603972
 H   16.952897  -12.081330   16.129411
 H   15.763508  -12.991281   17.070780
 H   14.915439  -15.204958   16.177713
 H   15.162914  -15.512223   14.431476
 H   16.414134  -15.931405   15.614384
 H   21.838040  -11.942990   22.431407
 H   22.597194  -10.678496   21.458813
 H   21.799473  -10.247888   23.004485
 H   16.161498   -8.029318   20.920229
 H   16.163060   -7.401775   22.573424
 H   15.429278   -9.645801   23.402237
 H   15.438468  -10.250654   21.747325
 H   13.656264   -7.971289   22.772502
 H   13.669640   -8.596693   21.120283
 H   13.121186   -9.619256   22.444871
