44 
3as2_ligand_aiqm1.xyz
 N   -1.695582    7.611564   18.662889
 C   -0.547865    6.829556   18.794773
 C   -0.599142    5.995600   19.967647
 C   -1.672197    6.001722   20.825989
 N   -2.757080    6.808509   20.623534
 C   -2.782661    7.666601   19.547629
 N    0.280485    5.073527   20.497494
 C   -0.306443    4.603829   21.612377
 N   -1.504503    5.136511   21.853282
 C   -1.742456    8.507144   17.497561
 C   -1.042043    9.831589   17.781216
 C   -0.928833   10.732137   16.552518
 C    0.092151   10.231419   15.524084
 C    0.202249   11.177711   14.344529
 C   -0.887499   11.089597   13.299752
 O    1.106452   11.980152   14.253805
 O    0.362586    6.882221   17.980712
 O   -3.707112    8.436276   19.366418
 C   -3.872292    6.839150   21.556972
 C    1.629450    4.793841   20.011779
 C    2.598188    5.920891   20.352497
 C    2.726204    6.169335   21.851639
 H    0.168290    3.869362   22.244504
 H   -2.788330    8.669354   17.248186
 H   -1.266807    7.976900   16.673612
 H   -0.044060    9.624605   18.181467
 H   -1.600497   10.354368   18.562306
 H   -0.637431   11.734801   16.874793
 H   -1.911714   10.833529   16.077102
 H   -0.186231    9.236199   15.162627
 H    1.077593   10.163110   15.987164
 H   -0.718093   11.834451   12.526435
 H   -0.907308   10.091175   12.859315
 H   -1.862065   11.250734   13.764316
 H   -3.943920    7.826434   22.011952
 H   -4.798666    6.639797   21.020871
 H   -3.688728    6.080318   22.311798
 H    1.573335    4.654587   18.935358
 H    1.941797    3.855445   20.471280
 H    2.274979    6.827788   19.842846
 H    3.569747    5.651010   19.936063
 H    1.768487    6.466419   22.283513
 H    3.067162    5.272170   22.373640
 H    3.444104    6.963563   22.051158
