44 
3as2_ligand_xtb.xyz
 N   -1.536367    7.559091   18.600406
 C   -0.403809    6.767441   18.811241
 C   -0.527933    5.998632   20.011040
 C   -1.647083    6.071256   20.828341
 N   -2.698063    6.883949   20.540322
 C   -2.664763    7.663964   19.404847
 N    0.301532    5.079910   20.611928
 C   -0.340944    4.676453   21.721407
 N   -1.517271    5.243692   21.888112
 C   -1.522112    8.406783   17.413028
 C   -0.970302    9.794166   17.740137
 C   -1.021434   10.741776   16.544532
 C   -0.080423   10.317464   15.408205
 C   -0.066746   11.400198   14.349490
 C   -1.088064   11.222570   13.255653
 O    0.687670   12.338028   14.393802
 O    0.533787    6.770312   18.035154
 O   -3.581078    8.402913   19.114451
 C   -3.842132    6.930890   21.424202
 C    1.617142    4.708996   20.162090
 C    2.649339    5.790090   20.496670
 C    2.795005    6.006819   21.997195
 H    0.064659    3.952484   22.399773
 H   -2.547425    8.486315   17.047458
 H   -0.891673    7.903595   16.678949
 H    0.059311    9.693696   18.089422
 H   -1.570022   10.217279   18.548763
 H   -0.730841   11.740225   16.877655
 H   -2.047612   10.797097   16.175124
 H   -0.409136    9.373256   14.976805
 H    0.926791   10.202757   15.811373
 H   -1.148040   12.117091   12.641690
 H   -0.791109   10.381822   12.630881
 H   -2.061859   10.997393   13.683234
 H   -3.535044    7.290194   22.406291
 H   -4.573679    7.606992   20.986808
 H   -4.261776    5.931132   21.530417
 H    1.580342    4.573140   19.078367
 H    1.885061    3.764026   20.641570
 H    2.350068    6.718219   20.007808
 H    3.606223    5.483858   20.072326
 H    1.852157    6.322987   22.439363
 H    3.114965    5.089703   22.488120
 H    3.536386    6.776345   22.194951
