44 
3as2_ligand_ani-2x.xyz
 N   -1.685761    7.631726   18.760008
 C   -0.513847    6.866177   18.925900
 C   -0.581577    6.017542   20.086871
 C   -1.650439    6.046012   20.951183
 N   -2.717644    6.893142   20.767997
 C   -2.744407    7.746578   19.673883
 N    0.275957    5.066181   20.586624
 C   -0.329269    4.587803   21.704056
 N   -1.490948    5.152866   21.964170
 C   -1.766224    8.489593   17.569604
 C   -1.176218    9.877817   17.816951
 C   -1.322348   10.831615   16.629850
 C   -0.578234   10.377610   15.377138
 C   -0.589269   11.430143   14.280183
 C    0.097383   11.049695   12.987447
 O   -1.116333   12.511410   14.436616
 O    0.410579    6.964832   18.130260
 O   -3.653363    8.540393   19.520593
 C   -3.825471    6.955159   21.709573
 C    1.563645    4.680774   20.028079
 C    2.677114    5.697315   20.278746
 C    2.944473    5.959307   21.756246
 H    0.136638    3.811299   22.299030
 H   -2.821638    8.563671   17.300731
 H   -1.227616    7.969931   16.776211
 H   -0.115530    9.761779   18.074614
 H   -1.678449   10.317496   18.686088
 H   -0.946082   11.819819   16.912806
 H   -2.381896   10.977017   16.383758
 H   -1.001894    9.450927   14.961685
 H    0.471658   10.142364   15.613361
 H    0.058740   11.886216   12.287990
 H    1.143072   10.775300   13.171981
 H   -0.390136   10.176622   12.537326
 H   -3.886091    7.951387   22.152491
 H   -4.764122    6.750720   21.191469
 H   -3.640695    6.204779   22.480262
 H    1.428042    4.541472   18.952950
 H    1.816999    3.710078   20.465999
 H    2.427082    6.625693   19.754050
 H    3.585081    5.305935   19.802189
 H    2.064610    6.389673   22.246944
 H    3.200300    5.031193   22.282781
 H    3.777827    6.657940   21.882707
