52 
3at3_ligand_xtb.xyz
 N   50.286399    9.111177   10.461272
 N   51.131555   10.561822   12.653086
 C   50.546893   10.394275   10.353804
 C   50.964209   11.144701   11.469737
 N   51.202990   12.486668   11.374000
 C   50.871344    9.261105   12.746485
 C   50.433504    8.529434   11.644737
 N   51.078738    8.702464   14.002964
 C   51.484802   13.391124   12.377947
 C   51.621709   14.644645   11.740562
 N   51.154381   13.106665   10.164430
 C   51.402876   14.369805   10.364785
 C   51.867705    9.263934   14.967810
 C   51.845151    8.463912   16.076701
 C   50.978942    7.375961   15.774985
 C   50.538869    7.548359   14.494510
 C   51.891488   15.778072   12.510846
 N   52.034346   14.313786   15.856624
 C   52.008819   15.629129   13.866679
 C   51.865861   14.372657   14.506593
 C   51.596031   13.233847   13.746310
 C   51.791384   13.145728   16.673370
 C   50.289940   12.765741   16.739508
 C   49.868209   12.947981   18.202622
 C   50.893287   13.923966   18.772122
 C   52.187835   13.443232   18.124087
 O   52.120242   10.293126   19.139156
 O   50.356339    9.292561   18.254965
 C   52.536346    8.716141   17.375107
 C   51.672114    9.519793   18.342015
 H   50.429993   10.856766    9.386804
 H   50.216653    7.473341   11.689078
 H   51.420610   15.053169    9.538404
 H   52.409621   10.165862   14.771677
 H   50.741865    6.551103   16.419641
 H   49.866593    6.947924   13.916425
 H   51.997156   16.746035   12.045172
 H   52.026884   15.195769   16.344068
 H   52.214737   16.491890   14.484874
 H   51.457311   12.270714   14.199290
 H   52.391715   12.326155   16.265389
 H   50.119503   11.744454   16.401269
 H   49.723318   13.431534   16.086565
 H   49.947294   11.999234   18.732304
 H   48.845004   13.309708   18.293351
 H   50.937710   13.894296   19.858669
 H   50.660286   14.945360   18.461747
 H   53.000804   14.166231   18.182616
 H   52.504977   12.521531   18.610745
 H   50.154254    8.665865   17.539139
 H   53.470900    9.258565   17.230342
 H   52.767006    7.768482   17.870712
