52 
3at3_ligand_ani-2x.xyz
 N   49.973133    9.173191   10.505841
 N   51.078742   10.544149   12.653246
 C   50.237210   10.470928   10.425217
 C   50.795491   11.156069   11.513114
 N   51.078994   12.510062   11.416924
 C   50.834575    9.241132   12.713854
 C   50.268404    8.545393   11.640864
 N   51.178256    8.627627   13.919188
 C   51.427287   13.391937   12.423565
 C   51.661192   14.623460   11.796246
 N   51.058726   13.129048   10.199331
 C   51.407542   14.373323   10.413818
 C   51.706171    9.308990   14.998914
 C   51.916975    8.427601   16.023168
 C   51.518284    7.146315   15.545532
 C   51.066629    7.289733   14.262878
 C   52.050233   15.730295   12.578406
 N   52.111326   14.212857   15.932880
 C   52.176434   15.565461   13.933373
 C   51.919974   14.311541   14.563571
 C   51.524853   13.218126   13.806220
 C   51.780925   13.022179   16.683973
 C   50.263566   12.797489   16.860576
 C   49.852844   13.723692   18.027321
 C   51.152537   13.989189   18.833553
 C   52.259283   13.174211   18.132292
 O   51.616253    9.898653   19.371273
 O   50.034227    9.259129   17.965983
 C   52.373150    8.720039   17.426033
 C   51.323669    9.356311   18.339199
 H   50.008059   10.987443    9.499861
 H   50.044684    7.482698   11.682988
 H   51.470334   15.070788    9.588700
 H   51.885608   10.370713   14.902727
 H   51.546566    6.227809   16.118540
 H   50.685463    6.564577   13.558252
 H   52.246361   16.697214   12.124248
 H   52.016473   15.080915   16.437779
 H   52.484674   16.406778   14.550094
 H   51.272698   12.268560   14.253391
 H   52.259315   12.169793   16.185104
 H   50.108155   11.744830   17.133287
 H   49.708402   12.991928   15.936441
 H   49.072853   13.260627   18.639201
 H   49.437500   14.664426   17.650465
 H   51.054827   13.701002   19.885225
 H   51.395369   15.057290   18.828017
 H   53.245401   13.646580   18.179570
 H   52.332436   12.176832   18.583268
 H   49.977757    8.840388   17.092870
 H   53.247965    9.378299   17.451073
 H   52.678716    7.788179   17.918652
