52 
3at3_ligand_aiqm1.xyz
 N   50.342649    9.083592   10.429361
 N   51.143962   10.565152   12.649235
 C   50.546043   10.391558   10.343780
 C   50.947390   11.132031   11.467345
 N   51.151058   12.500764   11.384539
 C   50.926647    9.255738   12.720052
 C   50.529146    8.502748   11.620445
 N   51.136335    8.679934   13.980251
 C   51.448523   13.408183   12.391009
 C   51.552318   14.658150   11.762129
 N   51.061527   13.125794   10.160768
 C   51.300530   14.395547   10.383165
 C   51.833097    9.288546   15.005316
 C   51.809417    8.467800   16.104279
 C   51.055043    7.310577   15.733140
 C   50.656794    7.464484   14.427715
 C   51.839050   15.800463   12.525141
 N   52.144677   14.313777   15.867389
 C   52.012174   15.655292   13.881348
 C   51.906099   14.384793   14.516774
 C   51.612297   13.245971   13.767130
 C   51.888660   13.126485   16.676190
 C   50.382551   12.731408   16.700829
 C   49.910701   12.949186   18.152630
 C   50.932974   13.918150   18.756121
 C   52.240151   13.420543   18.139735
 O   51.883008   10.160835   19.320648
 O   50.149160    9.397799   18.168624
 C   52.391035    8.752129   17.454969
 C   51.467901    9.514341   18.399175
 H   50.405874   10.884157    9.396087
 H   50.372109    7.435787   11.684607
 H   51.287063   15.089931    9.557638
 H   52.276113   10.257515   14.846118
 H   50.837537    6.455614   16.354797
 H   50.050479    6.829113   13.807105
 H   51.922292   16.775586   12.063216
 H   52.090200   15.182911   16.368542
 H   52.239595   16.522238   14.490506
 H   51.502992   12.285017   14.237784
 H   52.504051   12.312626   16.277165
 H   50.235277   11.697494   16.376266
 H   49.835821   13.371317   16.003852
 H   49.950751   12.007736   18.703124
 H   48.886901   13.320660   18.204354
 H   50.943584   13.893339   19.844591
 H   50.723268   14.949519   18.443993
 H   53.074362   14.119285   18.222915
 H   52.516793   12.484761   18.630938
 H   50.027306    8.898952   17.346539
 H   53.314357    9.323742   17.390438
 H   52.628857    7.816730   17.966287
