17 
3atl_ligand_ani-2x.xyz
 C   -1.831838  -14.134857   16.788633
 C   -2.038563  -15.515172   16.747565
 C   -1.704851  -16.240100   15.610292
 C   -1.178145  -15.590591   14.496213
 C   -0.989628  -14.211223   14.522709
 C   -1.313406  -13.487735   15.665910
 C   -2.191862  -13.378470   18.028745
 N   -1.468586  -12.205246   18.224663
 N   -3.121337  -13.829312   18.778820
 H   -2.465284  -16.001170   17.620003
 H   -1.861478  -17.315408   15.591121
 H   -0.920227  -16.159138   13.606696
 H   -0.581225  -13.698061   13.655296
 H   -1.182913  -12.408375   15.682650
 H   -1.551883  -11.801350   19.147934
 H   -0.513991  -12.219483   17.890319
 H   -3.278382  -13.218608   19.582434
