33 
3b4p_ligand_aiqm1.xyz
 C   41.963678   -0.430033   93.035609
 C   42.472850   -1.723100   92.405549
 C   41.323945   -2.503320   91.767914
 C   40.594998   -1.645840   90.735071
 C   40.102652   -0.342843   91.361008
 C   41.251595    0.440307   91.991847
 N   40.741854    1.676179   92.566100
 C   41.484731    2.777111   92.850230
 C   42.889156    2.803390   92.670357
 C   43.618143    3.945122   92.952654
 C   42.993472    5.100727   93.425210
 C   41.624988    5.081205   93.631599
 C   40.853860    3.940072   93.367851
 C   39.388739    3.958947   93.602456
 O   38.932724    4.844907   94.519274
 O   38.582890    3.247444   93.046259
 H   42.775876    0.129973   93.504937
 H   41.243586   -0.668849   93.825867
 H   42.977604   -2.333283   93.156426
 H   43.217284   -1.482922   91.638152
 H   40.617285   -2.795897   92.551205
 H   41.693484   -3.422559   91.309482
 H   39.752379   -2.191465   90.308702
 H   41.276627   -1.415260   89.909433
 H   39.371559   -0.570569   92.144427
 H   39.602910    0.276472   90.611979
 H   41.974259    0.684112   91.198948
 H   39.741968    1.810672   92.576909
 H   43.393886    1.927321   92.292042
 H   44.689544    3.938493   92.791353
 H   43.560857    5.997926   93.622159
 H   41.137010    5.992783   93.965064
 H   39.677306    5.246975   94.974527
