19 
3b7j_ligand_ani-2x.xyz
 O   21.125119   12.739270  -12.558957
 C   20.635001   13.818526  -12.291402
 C   21.489030   15.017369  -12.101981
 C   20.967724   16.208426  -11.808712
 C   19.496092   16.444838  -11.645915
 O   19.108445   17.561913  -11.380410
 C   18.590887   15.250873  -11.828681
 C   19.150064   14.000477  -12.138079
 C   18.363071   12.870471  -12.317764
 C   16.993333   12.971426  -12.189876
 C   16.410162   14.199340  -11.882705
 C   17.189028   15.338323  -11.700494
 O   16.613761   16.526251  -11.402014
 H   22.558822   14.862916  -12.216950
 H   21.587519   17.089614  -11.669140
 H   18.862225   11.937404  -12.555261
 H   16.360755   12.098913  -12.326708
 H   15.328545   14.273417  -11.782740
 H   15.658517   16.399134  -11.354613
