19 
3b7j_ligand_xtb.xyz
 O   21.141333   12.735629  -12.561917
 C   20.641463   13.811383  -12.294058
 C   21.459456   15.017959  -12.100582
 C   20.924886   16.203458  -11.806541
 C   19.471756   16.428486  -11.646212
 O   19.047604   17.534485  -11.378318
 C   18.618550   15.238435  -11.833174
 C   19.177579   13.987908  -12.142807
 C   18.369161   12.871892  -12.317528
 C   16.994805   12.979004  -12.187832
 C   16.427494   14.198803  -11.884061
 C   17.219944   15.336215  -11.703632
 O   16.666759   16.520018  -11.408715
 H   22.526832   14.882874  -12.212123
 H   21.537285   17.084095  -11.666405
 H   18.838187   11.929423  -12.554636
 H   16.366344   12.112067  -12.323480
 H   15.353731   14.289371  -11.781237
 H   15.704932   16.447396  -11.349143
