53 
3b8r_ligand_aiqm1.xyz
 C    9.871115   -0.811604   57.731411
 C    8.511419   -0.901660   57.605990
 C    7.757538    0.233772   57.206733
 C    8.422146    1.458175   56.923090
 C    9.840275    1.505703   57.056599
 C   10.546825    0.400142   57.447458
 C    6.348888    0.148533   57.074853
 C    5.619958    1.241777   56.689296
 C    6.271715    2.469039   56.429853
 C    7.637493    2.588393   56.534321
 O   10.599543   -1.888951   58.201014
 C   11.140636   -2.737951   57.276133
 C   11.878336   -3.817680   57.806893
 C   12.451183   -4.723608   56.890959
 N   12.326900   -4.604624   55.539033
 C   11.629508   -3.578536   55.096698
 C   11.007905   -2.605906   55.912497
 C   12.053230   -4.008595   59.208587
 C   12.777449   -5.071442   59.673735
 C   13.362265   -5.997260   58.744661
 C   13.197529   -5.818743   57.398234
 O   13.011592   -5.355846   60.976881
 O   14.053965   -7.006956   59.317078
 C   14.650294   -7.943538   58.434850
 C   12.455491   -4.463607   61.926235
 C    8.288623    3.914698   56.225513
 N    7.596796    4.980537   56.722329
 C    8.089352    6.322713   56.676105
 O    9.318191    4.026939   55.583934
 C    8.406238    6.909989   55.335155
 C    7.191500    7.377219   56.082389
 H    8.012284   -1.841204   57.812899
 H   10.362072    2.421716   56.819088
 H   11.624394    0.422898   57.542105
 H    5.859836   -0.796123   57.280442
 H    4.545483    1.175438   56.579879
 H    5.677022    3.319983   56.114938
 H   11.537830   -3.492342   54.020043
 H   10.452613   -1.793358   55.465738
 H   11.604801   -3.298637   59.884792
 H   13.622903   -6.493263   56.671655
 H   13.896554   -8.449260   57.827157
 H   15.377333   -7.460422   57.778306
 H   15.155083   -8.668301   59.065486
 H   12.848248   -3.452716   61.795558
 H   11.365934   -4.436161   61.851507
 H   12.744357   -4.843728   62.900514
 H    6.839727    4.779785   57.354413
 H    8.718996    6.626235   57.504193
 H    8.262196    6.254096   54.488888
 H    9.264645    7.562861   55.275332
 H    7.206409    8.358246   56.532190
 H    6.226182    7.048730   55.722261
