53 
3b8r_ligand_xtb.xyz
 C    9.348242   -1.200726   57.375009
 C    8.002539   -1.037507   57.585085
 C    7.364898    0.172653   57.251677
 C    8.130136    1.231599   56.691546
 C    9.516472    1.037511   56.509860
 C   10.113367   -0.144354   56.840151
 C    5.979415    0.347651   57.448925
 C    5.370486    1.522079   57.106775
 C    6.120987    2.574592   56.567145
 C    7.475505    2.447245   56.362419
 O    9.926698   -2.374935   57.786843
 C   10.893882   -2.968639   57.029103
 C   11.774410   -3.856588   57.694815
 C   12.749311   -4.519337   56.908049
 N   12.859431   -4.335710   55.579479
 C   12.022955   -3.517796   54.999525
 C   11.017675   -2.807503   55.665476
 C   11.717599   -4.094759   59.083658
 C   12.592272   -4.960998   59.680777
 C   13.579760   -5.634960   58.888976
 C   13.644514   -5.408250   57.540741
 O   12.624924   -5.262077   61.004681
 O   14.389669   -6.468221   59.586963
 C   15.386076   -7.168684   58.883032
 C   11.682638   -4.647616   61.847653
 C    8.235305    3.581550   55.751553
 N    7.952108    4.781160   56.317717
 C    8.542039    6.000814   55.875216
 O    9.020298    3.458319   54.831517
 C    7.754644    7.272916   55.947900
 C    8.917070    7.051823   56.874767
 H    7.427495   -1.846217   58.010175
 H   10.104891    1.836894   56.089263
 H   11.176941   -0.279192   56.708341
 H    5.407707   -0.467821   57.867355
 H    4.307261    1.649349   57.247183
 H    5.614475    3.486251   56.282275
 H   12.138812   -3.404959   53.929332
 H   10.353038   -2.158380   55.116324
 H   10.963388   -3.572814   59.649607
 H   14.370417   -5.894098   56.910903
 H   14.952334   -7.828299   58.124798
 H   16.094377   -6.484939   58.404537
 H   15.907028   -7.766853   59.628814
 H   11.793911   -3.558217   61.848897
 H   10.657926   -4.905628   61.560610
 H   11.885925   -5.032251   62.845710
 H    7.326041    4.826062   57.106526
 H    9.186381    5.820522   55.024973
 H    6.760276    7.231544   56.366924
 H    7.858599    7.987776   55.147222
 H    9.822716    7.614468   56.713153
 H    8.703536    6.861153   57.915947
