48 
3be9_ligand_ani-2x.xyz
 N   19.913405    9.917981   20.287937
 C   20.255168   10.281631   19.065075
 C   21.309351    9.524885   18.501948
 C   21.622689    8.599621   19.509031
 N   20.762796    8.889868   20.552480
 N   22.500562    7.574747   19.634922
 C   22.478614    6.967390   20.822043
 N   21.686369    7.244265   21.906414
 C   20.817681    8.203103   21.745575
 N   19.960544    8.616808   22.688703
 C   19.704169    7.831131   23.861350
 C   20.819425    7.649443   24.850282
 C   19.671066    8.556845   25.172439
 N   23.345280    5.944558   21.092350
 C   24.183595    5.207574   20.242422
 C   23.975095    5.145895   18.866731
 C   24.853759    4.428214   18.060071
 C   25.901050    3.700882   18.621997
 C   26.087309    3.743965   20.000569
 C   25.240045    4.488772   20.811375
 N   24.669478    4.440412   16.657473
 C   24.376447    5.515936   15.846985
 O   24.081869    5.342136   14.678142
 C   24.482168    6.915421   16.424861
 C   23.128174    7.625151   16.459994
 C   23.276550    9.069912   16.931085
 C   21.938823    9.774409   17.160800
 H   19.736864   11.106024   18.589870
 H   19.255799    9.275951   22.376648
 H   19.027987    6.986627   23.725297
 H   21.763032    8.110000   24.575980
 H   20.899191    6.694186   25.361294
 H   18.946788    8.241869   25.918588
 H   19.862296    9.625629   25.148119
 H   23.293792    5.651337   22.057713
 H   23.120244    5.633398   18.417205
 H   26.567899    3.126477   17.984590
 H   26.905617    3.186228   20.448257
 H   25.395660    4.524244   21.886805
 H   24.770907    3.573842   16.145701
 H   25.147859    7.465955   15.749245
 H   24.944181    6.923787   17.417244
 H   22.433217    7.102699   17.127023
 H   22.684484    7.590359   15.456622
 H   23.859662    9.627947   16.186446
 H   23.848320    9.094057   17.865903
 H   22.082360   10.857702   17.049989
 H   21.236561    9.500729   16.358007
