39 
3bgz_ligand_aiqm1.xyz
 O  -16.354741   34.666157    1.225417
 C  -19.409359   37.708414   -1.045386
 C  -22.430272   39.776804   -1.951300
 C  -16.700425   35.432907    2.100736
 O  -16.250811   35.327145    3.366749
 C  -17.634398   36.551366    1.906953
 C  -18.167463   36.763248    0.626741
 N  -17.939272   36.085563   -0.533113
 C  -18.706444   36.637116   -1.550381
 C  -18.685975   36.055122   -2.896914
 C  -19.837984   36.026206   -3.692257
 C  -19.795338   35.467227   -4.966232
 C  -18.611342   34.924807   -5.458732
 C  -17.463682   34.941908   -4.668863
 C  -17.501564   35.499955   -3.396175
 C  -20.301764   38.627551   -1.771826
 C  -21.579606   38.907502   -1.273052
 C  -22.014084   40.383158   -3.133111
 C  -20.740001   40.120178   -3.630777
 C  -19.886545   39.253036   -2.953398
 C  -19.081243   37.804183    0.354598
 C  -19.456983   38.668251    1.389969
 C  -18.928351   38.463941    2.661349
 C  -18.031102   37.418144    2.921866
 H  -23.417753   39.977904   -1.556463
 H  -15.654632   34.568963    3.378149
 H  -20.760893   36.440133   -3.310407
 H  -20.690207   35.453181   -5.574134
 H  -18.583161   34.490782   -6.449173
 H  -16.539184   34.521140   -5.042206
 H  -16.604475   35.516714   -2.789657
 H  -21.904859   38.438034   -0.352303
 H  -22.675742   41.056091   -3.661460
 H  -20.409350   40.591790   -4.546985
 H  -18.897529   39.048118   -3.342908
 H  -20.143423   39.485528    1.202956
 H  -19.213471   39.124636    3.468787
 H  -17.636007   37.275922    3.918568
 H  -17.371569   35.257170   -0.579625
