16 
3bh3_ligand_aiqm1.xyz
 C    3.766466  -32.260139  -16.174649
 C    3.430218  -33.186052  -13.827695
 C    4.822974  -33.010124  -13.244012
 O    5.488719  -32.014927  -13.424794
 C    5.324796  -34.162585  -12.400714
 C    3.031962  -32.120818  -14.843313
 H    4.840252  -32.128100  -16.047301
 H    3.593323  -33.247868  -16.609570
 H    3.418128  -31.513610  -16.889395
 H    2.737212  -33.195705  -12.979185
 H    3.375890  -34.186349  -14.269767
 H    6.291516  -33.911388  -11.968674
 H    4.607192  -34.390795  -11.610024
 H    5.416426  -35.058591  -13.018021
 H    1.955662  -32.189149  -15.016680
 H    3.225362  -31.135201  -14.417306
