30 
3bqc_ligand_aiqm1.xyz
 C   17.280745  -55.290812  -46.769781
 O   17.558999  -54.979685  -48.038713
 C   17.114370  -56.650344  -46.476710
 C   16.825170  -57.034612  -45.182003
 O   16.673403  -58.363122  -44.950389
 C   16.695807  -56.081365  -44.156107
 C   16.860563  -54.742392  -44.449587
 C   16.716402  -53.760260  -43.338863
 O   16.460585  -54.125142  -42.206166
 C   16.897309  -52.324161  -43.671693
 C   16.768107  -51.399178  -42.655640
 C   16.929995  -50.021327  -42.916871
 C   16.787378  -49.018933  -41.803775
 C   17.219496  -49.615053  -44.205393
 C   17.353357  -50.550756  -45.249409
 O   17.634003  -50.068638  -46.464874
 C   17.193197  -51.921678  -44.993164
 C   17.330880  -52.899695  -46.072316
 O   17.593280  -52.530171  -47.239584
 C   17.156344  -54.313731  -45.759589
 H   17.643722  -54.005610  -48.075157
 H   17.214091  -57.383361  -47.266488
 H   16.476361  -58.503864  -44.021750
 H   16.469410  -56.373392  -43.139362
 H   16.540918  -51.751081  -41.658294
 H   15.794410  -49.077363  -41.357325
 H   17.510633  -49.216394  -41.012199
 H   16.943263  -48.006234  -42.171228
 H   17.352175  -48.567506  -44.452238
 H   17.692627  -50.838040  -47.065033
