58 
3bym_ligand_xtb.xyz
 N   25.058355   35.119659   81.872117
 C   23.809924   35.225080   82.249635
 N   23.339267   36.026423   83.190371
 C   24.269961   36.770586   83.811023
 N   25.552186   36.786730   83.479231
 C   25.909731   35.958622   82.500036
 N   27.183147   35.895351   82.085653
 C   29.546350   36.133334   82.341433
 C   28.276849   36.678188   82.474105
 C   28.117835   37.978291   82.932859
 C   29.232688   38.715139   83.301994
 C   30.527355   38.164344   83.201373
 C   30.675403   36.866351   82.691642
 O   31.533213   39.006837   83.574923
 O   31.949160   36.382052   82.548216
 C   32.746913   38.482665   84.065545
 C   25.729230   39.857849   87.714693
 C   24.357181   39.840084   87.536393
 C   23.848536   39.029743   86.534410
 C   24.713106   38.266425   85.722446
 C   26.078434   38.266648   85.919391
 C   26.572364   39.080907   86.928910
 N   22.537840   38.807632   86.174784
 C   22.564360   37.947742   85.204215
 N   23.879725   37.567859   84.843574
 N   21.523113   37.418518   84.540917
 O   29.188453   39.987496   83.769391
 C   32.126855   35.066027   82.087150
 C   27.945834   40.649639   83.805584
 C   18.324601   38.789161   85.768486
 C   17.433095   38.100438   84.962599
 C   17.913558   37.195610   84.029868
 C   19.272032   36.981903   83.904100
 C   20.169728   37.675493   84.715708
 C   19.686996   38.584979   85.653206
 H   23.086311   34.593983   81.748459
 H   27.361887   35.147065   81.429126
 H   29.644099   35.132070   81.954769
 H   27.128389   38.390342   83.007711
 H   32.575782   37.690367   84.798734
 H   33.379129   38.097965   83.262359
 H   33.244941   39.322397   84.550279
 H   26.155529   40.480229   88.487494
 H   23.695475   40.424705   88.154295
 H   26.732669   37.656578   85.319206
 H   27.637380   39.107536   87.104773
 H   21.792079   36.726190   83.838514
 H   31.652696   34.336149   82.751175
 H   31.744658   34.938830   81.069157
 H   33.203676   34.902936   82.086677
 H   27.499114   40.715657   82.808358
 H   27.243376   40.162757   84.489360
 H   28.163259   41.652667   84.169019
 H   17.955652   39.495377   86.497592
 H   16.370708   38.266120   85.059512
 H   17.226364   36.653304   83.396953
 H   19.648890   36.276035   83.177068
 H   20.389158   39.113737   86.275927
