18 
3c2r_ligand_dft.xyz
 O    2.102188    1.375152   -0.401521
 O    0.742540    2.774150    0.628730
 C    1.062025   -1.498729   -0.008565
 O    1.035005   -2.611473    0.734594
 O    2.061456   -1.238551   -0.642680
 C    0.924254    1.697851    0.112287
 C   -1.398029   -1.412859   -0.120656
 C   -0.201095   -0.688928   -0.033884
 C   -0.241057    0.719945   -0.008401
 C   -1.491087    1.344068   -0.033950
 C   -2.670470    0.618512   -0.134556
 C   -2.625906   -0.769364   -0.186796
 H    2.121862    0.457424   -0.751284
 H    0.235487   -2.630667    1.278850
 H   -1.366510   -2.497704   -0.180778
 H   -1.512198    2.425591    0.034476
 H   -3.622165    1.138829   -0.170740
 H   -3.537804   -1.350668   -0.276372
