27 
3c4e_ligand_ani-2x.xyz
 N  -17.690297   37.334236   38.852540
 C  -16.768867   36.391213   39.315099
 C  -16.839169   35.852742   40.603316
 C  -15.914178   34.893552   41.004285
 C  -14.914433   34.458564   40.140458
 C  -14.853690   34.986271   38.853302
 C  -15.777961   35.936490   38.438606
 C  -18.338397   38.302997   39.607510
 C  -18.084584   38.732538   40.880640
 C  -19.435637   39.094708   39.102964
 C  -20.157502   39.170354   37.915722
 C  -19.796484   39.980719   40.142075
 N  -18.966366   39.743207   41.208406
 N  -20.763859   40.892397   40.111850
 C  -21.433654   40.935185   38.959190
 C  -21.175436   40.113067   37.853562
 H  -17.765764   37.433635   37.851345
 H  -17.627764   36.173521   41.277963
 H  -15.980901   34.485661   42.009599
 H  -14.194463   33.712783   40.465178
 H  -14.083816   34.653267   38.161665
 H  -15.727992   36.341009   37.429490
 H  -17.296507   38.433392   41.560043
 H  -19.949252   38.521041   37.065683
 H  -19.001323   40.248687   42.078034
 H  -22.232897   41.672988   38.904677
 H  -21.774806   40.219776   36.953800
