32 
3c4f_ligand_xtb.xyz
 C   67.702082    6.648054   16.360830
 O   66.956620    6.072744   15.316962
 C   67.379217    6.262144   14.033676
 C   68.512543    6.975654   13.664521
 C   68.835317    7.093742   12.321553
 C   68.047140    6.514504   11.348161
 C   66.586122    5.677407   13.046002
 C   66.908193    5.799668   11.707387
 C   66.067797    5.138415   10.653112
 C   66.672002    3.840645   10.207174
 C   66.265942    3.079193    9.069936
 C   67.691916    3.147410   10.789063
 N   67.952423    1.997549   10.085717
 C   67.099682    1.927111    9.032110
 N   67.047042    0.962085    8.126274
 C   66.126769    1.117895    7.191928
 C   65.249450    2.202102    7.119750
 C   65.308846    3.205869    8.067598
 H   68.722461    6.251741   16.393964
 H   67.739228    7.739122   16.275692
 H   67.182433    6.377214   17.278718
 H   69.146398    7.441034   14.402688
 H   69.717724    7.649988   12.040326
 H   68.310658    6.611987   10.305632
 H   65.712016    5.126359   13.357314
 H   65.061390    4.950792   11.039243
 H   65.973447    5.796883    9.784730
 H   68.260735    3.394783   11.664430
 H   68.656693    1.314798   10.305877
 H   66.084741    0.329021    6.452937
 H   64.527779    2.245571    6.318547
 H   64.639193    4.053515    8.032147
