37 
3ccn_ligand_ani-2x.xyz
 N   19.948036   14.083951   56.760915
 N   20.997709   16.001059   56.488929
 C   17.263048   12.547901   58.580946
 C   17.569703   11.196749   58.413891
 C   16.685444   10.214214   58.846792
 C   18.243469   13.566446   58.118324
 C   18.270049   14.899819   58.667915
 C   20.050386   15.394233   57.178800
 C   21.940003   11.701800   56.008219
 C   24.052262   11.063075   57.007493
 C   22.051593    9.815619   57.530453
 C   23.311543   11.894647   56.182034
 C   23.422150   10.018359   57.685482
 O   24.197907    9.233393   58.483276
 C   21.327604   10.659701   56.694700
 C   21.136119   12.637029   55.126939
 C   20.893244   13.950972   55.785696
 N   19.086999   13.156523   57.194359
 N   21.518022   15.089348   55.621875
 C   19.163203   15.815616   58.209888
 C   16.044993   12.901644   59.166479
 C   15.157377   11.919811   59.590915
 C   15.477739   10.573536   59.436662
 H   18.510083   10.922030   57.944647
 H   16.939195    9.165078   58.718231
 H   17.586682   15.167843   59.466834
 H   25.120534   11.205519   57.141732
 H   21.552437    9.004032   58.057038
 H   23.808194   12.709338   55.658079
 H   23.645219    8.555118   58.891560
 H   20.256502   10.510248   56.577403
 H   20.167786   12.179799   54.893010
 H   21.659022   12.835539   54.185362
 H   19.215473   16.828037   58.587732
 H   15.771230   13.947901   59.280447
 H   14.214070   12.208620   60.047335
 H   14.785670    9.806055   59.772304
