37 
3ccn_ligand_aiqm1.xyz
 N   19.998758   14.172875   56.625135
 N   20.867387   16.173302   56.286803
 C   17.529251   12.489689   58.636581
 C   17.993044   11.172432   58.725259
 C   17.190829   10.184646   59.285046
 C   18.397413   13.540014   58.057290
 C   18.303989   14.898723   58.543238
 C   19.985147   15.497375   56.995532
 C   21.872436   11.786474   55.923277
 C   23.528824   11.108538   57.560253
 C   21.675196    9.648996   57.055212
 C   23.042300   12.033065   56.645943
 C   22.841598    9.912596   57.764867
 O   23.362072    9.039006   58.679389
 C   21.197245   10.589132   56.141865
 C   21.335673   12.816423   54.953136
 C   20.947229   14.082861   55.642968
 N   19.233410   13.168384   57.123506
 N   21.467813   15.273129   55.444873
 C   19.083771   15.878817   58.024446
 C   16.245024   12.796844   59.100625
 C   15.441954   11.802125   59.650726
 C   15.914889   10.496193   59.750913
 H   18.982843   10.939833   58.351793
 H   17.557426    9.169403   59.356989
 H   17.615526   15.111105   59.344086
 H   24.432959   11.295702   58.123894
 H   21.140082    8.717874   57.210389
 H   23.576375   12.962814   56.492321
 H   22.808090    8.256298   58.711538
 H   20.276771   10.390703   55.605478
 H   20.462619   12.410184   54.431675
 H   22.084257   13.082026   54.207366
 H   19.052007   16.904322   58.361296
 H   15.857258   13.803883   59.006990
 H   14.447758   12.049035   59.997690
 H   15.291479    9.725781   60.184313
