30 
3cf9_ligand_ani-2x.xyz
 C   18.893804   16.420535  -12.273938
 C   20.250112   16.220578  -12.454917
 C   20.801925   14.960552  -12.215255
 O   22.139319   14.820922  -12.410814
 C   19.988527   13.908418  -11.796118
 C   18.629648   14.122840  -11.610981
 C   18.061243   15.376601  -11.842542
 C   16.614950   15.606194  -11.626393
 O   16.168784   16.729255  -12.249829
 C   15.800707   14.843733  -10.869002
 C   14.378406   15.118191  -10.703422
 O   13.665769   14.429560   -9.994951
 C   13.917130   16.299826  -11.481141
 C   14.841605   17.049393  -12.215285
 C   14.508196   18.176113  -12.953878
 C   13.182069   18.576933  -12.975495
 O   12.876646   19.678033  -13.703933
 C   12.213038   17.860392  -12.268068
 C   12.576905   16.737507  -11.532455
 O   11.647575   16.040802  -10.850596
 H   18.458061   17.396451  -12.463496
 H   20.901613   17.025317  -12.784369
 H   22.394579   13.910854  -12.214471
 H   20.414696   12.923675  -11.611505
 H   18.008444   13.286324  -11.302773
 H   16.187533   13.996476  -10.320190
 H   15.270097   18.720126  -13.496084
 H   11.929023   19.852151  -13.639812
 H   11.170634   18.178033  -12.289423
 H   10.785365   16.456415  -10.984563
