30 
3cf9_ligand_xtb.xyz
 C   18.881796   16.412643  -12.264776
 C   20.236226   16.224156  -12.426159
 C   20.800924   14.974452  -12.180677
 O   22.137159   14.826739  -12.350741
 C   19.982567   13.923673  -11.776440
 C   18.626611   14.118286  -11.612472
 C   18.053926   15.367197  -11.848174
 C   16.616751   15.598490  -11.674690
 O   16.169717   16.680009  -12.354429
 C   15.800389   14.843317  -10.909582
 C   14.375787   15.115377  -10.762149
 O   13.648072   14.420070  -10.076416
 C   13.936499   16.301208  -11.518665
 C   14.864338   17.026261  -12.277828
 C   14.495665   18.152283  -13.005470
 C   13.177778   18.575540  -12.984001
 O   12.844971   19.674203  -13.700486
 C   12.235900   17.872531  -12.236470
 C   12.598061   16.748897  -11.509384
 O   11.696938   16.067154  -10.787446
 H   18.450775   17.383279  -12.453038
 H   20.879480   17.029951  -12.741366
 H   22.400319   13.920365  -12.148522
 H   20.414014   12.948106  -11.594605
 H   18.007836   13.286038  -11.317373
 H   16.184621   14.003336  -10.356151
 H   15.229152   18.689099  -13.581682
 H   11.903630   19.864214  -13.604050
 H   11.204658   18.206502  -12.221853
 H   10.821843   16.468822  -10.860605
