30 
3cf9_ligand_aiqm1.xyz
 C   18.866648   16.410088  -12.288229
 C   20.229126   16.229982  -12.462895
 C   20.795835   14.982188  -12.202592
 O   22.137896   14.853390  -12.388972
 C   19.996163   13.926198  -11.773859
 C   18.631582   14.115941  -11.596755
 C   18.049706   15.362858  -11.845734
 C   16.611557   15.579917  -11.641411
 O   16.160637   16.684195  -12.299444
 C   15.795180   14.817042  -10.887287
 C   14.371891   15.097539  -10.743366
 O   13.645471   14.394122  -10.052996
 C   13.916909   16.283200  -11.494775
 C   14.843778   17.025065  -12.240472
 C   14.516384   18.157776  -12.973147
 C   13.195360   18.573575  -12.964518
 O   12.903636   19.685120  -13.689997
 C   12.223186   17.878794  -12.244685
 C   12.581234   16.745917  -11.518222
 O   11.651214   16.064130  -10.818796
 H   18.419331   17.373800  -12.493247
 H   20.864197   17.037534  -12.800397
 H   22.401199   13.955521  -12.176818
 H   20.434003   12.953765  -11.581166
 H   18.025212   13.279033  -11.278892
 H   16.178981   13.964551  -10.348628
 H   15.268658   18.692963  -13.531005
 H   11.967311   19.879958  -13.614842
 H   11.190710   18.217236  -12.248481
 H   10.803403   16.500802  -10.934075
