44 
3cgf_ligand_aiqm1.xyz
 C   23.112076   14.422313   31.161233
 N   22.965141   12.975301   31.016471
 C   22.011456   12.368565   31.775276
 N   21.861225   11.028389   31.698621
 C   20.885059   10.489272   32.454541
 C   20.640963    9.056309   32.405911
 N   21.409576    8.113245   31.745035
 C   20.819950    6.883485   31.971233
 C   21.408417    5.720714   31.422190
 C   22.552126    5.846579   30.685751
 C   23.134179    7.126392   30.472031
 C   22.557249    8.246666   30.999276
 N   19.726158    6.996889   32.722272
 C   19.620717    8.319605   32.987150
 C   20.081941   11.274195   33.295412
 C   20.340928   12.631185   33.301968
 N   21.289130   13.199171   32.554933
 C   23.842578   12.278275   30.062534
 C   23.087120   11.553247   28.942935
 C   24.075306   10.986957   27.923419
 C   25.083091   10.055062   28.595702
 C   25.829815   10.780864   29.714896
 C   24.858122   11.355378   30.744693
 H   23.941150   14.747514   30.538770
 H   22.201815   14.943204   30.855977
 H   23.315330   14.690889   32.199321
 H   20.931232    4.771721   31.609025
 H   23.022298    4.973449   30.259270
 H   24.039399    7.226556   29.891575
 H   22.923567    9.244015   30.875988
 H   18.803796    8.697798   33.583186
 H   19.308522   10.844643   33.909513
 H   19.765973   13.302857   33.930360
 H   24.425456   13.067578   29.574586
 H   22.393759   12.250112   28.462782
 H   22.494923   10.744602   29.366331
 H   24.619044   11.811500   27.447869
 H   23.540163   10.463178   27.129362
 H   25.791067    9.668570   27.858358
 H   24.552693    9.188467   29.010643
 H   26.411121   11.599143   29.275063
 H   26.546111   10.113357   30.198527
 H   24.330800   10.548427   31.254499
 H   25.401757   11.918063   31.509612
