44 
3cgf_ligand_dft.xyz
 C   -4.092253    1.414568   -0.147870
 N   -2.759929    0.848385   -0.017991
 C   -1.657473    1.651781   -0.067253
 N   -0.439572    1.068844   -0.029381
 C    0.628225    1.876534   -0.023441
 C    1.962191    1.298764    0.079642
 N    2.307720   -0.037218   -0.074924
 C    3.686178   -0.114353    0.115092
 C    4.323679   -1.368747   -0.008884
 C    3.579405   -2.471574   -0.321228
 C    2.176963   -2.351180   -0.513285
 C    1.560053   -1.144631   -0.384626
 N    4.211908    1.077461    0.389122
 C    3.166439    1.926706    0.363760
 C    0.493219    3.269700   -0.101053
 C   -0.799913    3.752494   -0.164652
 N   -1.878651    2.978596   -0.142022
 C   -2.720695   -0.610508    0.115225
 C   -1.994044   -1.115477    1.369045
 C   -2.135201   -2.636028    1.487693
 C   -1.622148   -3.338589    0.227758
 C   -2.349173   -2.837288   -1.023801
 C   -2.257271   -1.314343   -1.167637
 H   -4.619801    0.941086   -0.985337
 H   -4.671858    1.243911    0.768037
 H   -4.020838    2.484107   -0.327203
 H    5.395316   -1.407540    0.145440
 H    4.053845   -3.441724   -0.424290
 H    1.578215   -3.218637   -0.765669
 H    0.501697   -0.969611   -0.496534
 H    3.306480    2.979718    0.571577
 H    1.346562    3.933986   -0.133139
 H   -0.986881    4.822572   -0.238445
 H   -3.773556   -0.891494    0.252588
 H   -2.418445   -0.617831    2.248837
 H   -0.937107   -0.841787    1.324433
 H   -3.191783   -2.899155    1.642157
 H   -1.590525   -2.991357    2.369454
 H   -1.740095   -4.424259    0.321712
 H   -0.545419   -3.145130    0.130927
 H   -3.407289   -3.128844   -0.958502
 H   -1.947247   -3.321547   -1.921155
 H   -1.231989   -1.012662   -1.400979
 H   -2.878700   -0.973252   -2.004450
