49 
3cr5_ligand_ani-2x.xyz
 C   -1.953900    3.540379   25.493368
 C   -0.655170    3.683695   25.981328
 C   -0.176649    4.949357   26.298495
 C   -0.975153    6.080961   26.150787
 C   -2.270732    5.925024   25.649874
 C   -2.757582    4.672878   25.322593
 C   -1.817972    1.146236   25.354353
 C   -0.842610    0.863788   24.212959
 C   -0.423420    7.421622   26.503184
 C   -0.203079   -0.525425   24.274151
 C    3.393706   -1.938546   24.231389
 C    4.027118   -1.157760   25.198183
 C    5.343543   -0.754630   24.997420
 C    6.037731   -1.093536   23.839838
 C    5.386946   -1.869036   22.874915
 C    4.086731   -2.294800   23.068822
 C    1.352198   -2.131619   25.479787
 C    0.732334   -0.738020   25.466617
 C    7.453997   -0.656713   23.646316
 O   -2.536720    2.358341   25.159341
 O    2.121425   -2.414398   24.317075
 N    0.838761    7.603948   26.438889
 N   -1.377595    8.375665   26.847468
 N    8.341789   -0.596535   24.562027
 N    7.796705   -0.352333   22.337637
 H   -0.008465    2.823265   26.111146
 H    0.835744    5.076369   26.668044
 H   -2.895218    6.801877   25.495941
 H   -3.765312    4.536043   24.941516
 H   -1.323272    1.156558   26.335281
 H   -2.592448    0.372974   25.380852
 H   -0.061191    1.634235   24.191327
 H   -1.396218    0.965208   23.272763
 H    0.357557   -0.702345   23.349845
 H   -0.994463   -1.289052   24.298717
 H    3.515059   -0.866204   26.108746
 H    5.829542   -0.141112   25.754402
 H    5.925838   -2.147622   21.972043
 H    3.574049   -2.904068   22.331018
 H    0.561680   -2.889236   25.470558
 H    1.956695   -2.297193   26.381158
 H    0.190026   -0.612689   26.412710
 H    1.523197    0.023040   25.452789
 H    1.088106    8.561748   26.691476
 H   -1.007132    9.211318   27.279812
 H   -2.197408    8.022691   27.323494
 H    7.954874   -0.890012   25.458091
 H    8.700933    0.097293   22.272098
 H    7.079427    0.104669   21.791555
