49 
3cr5_ligand_xtb.xyz
 C   -1.858855    3.410973   25.449140
 C   -0.607489    3.451849   26.058742
 C   -0.020818    4.667826   26.350268
 C   -0.656407    5.867926   26.052798
 C   -1.904353    5.823204   25.434037
 C   -2.494501    4.614673   25.136447
 C   -1.956996    1.017896   25.307996
 C   -0.940503    0.695920   24.209166
 C    0.018854    7.136529   26.384607
 C   -0.363571   -0.712097   24.334424
 C    3.288564   -1.825649   24.310668
 C    3.893279   -1.100300   25.332326
 C    5.155749   -0.566798   25.145778
 C    5.836331   -0.722644   23.945030
 C    5.223725   -1.445650   22.922385
 C    3.973931   -1.993363   23.104454
 C    1.251797   -2.249256   25.509746
 C    0.561487   -0.882067   25.539041
 C    7.198106   -0.156480   23.774939
 O   -2.553978    2.285857   25.130794
 O    2.068476   -2.425460   24.372516
 N    1.284897    7.143995   26.465989
 N   -0.791326    8.236722   26.538051
 N    8.105150   -0.104402   24.665184
 N    7.496878    0.282005   22.513669
 H   -0.079919    2.546274   26.313988
 H    0.951866    4.709169   26.813738
 H   -2.409526    6.735500   25.152323
 H   -3.458065    4.570614   24.653275
 H   -1.505815    0.942000   26.303814
 H   -2.791711    0.312580   25.254266
 H   -0.132710    1.430470   24.230252
 H   -1.448264    0.794847   23.247509
 H    0.209895   -0.936349   23.432865
 H   -1.178850   -1.436311   24.398220
 H    3.400652   -0.947013   26.279719
 H    5.611860   -0.001222   25.946518
 H    5.745203   -1.598000   21.989149
 H    3.497790   -2.566605   22.324353
 H    0.498342   -3.038092   25.427866
 H    1.824551   -2.415271   26.430379
 H    0.001154   -0.806762   26.472000
 H    1.317538   -0.094178   25.524009
 H    1.686261    8.049938   26.697303
 H   -0.372200    9.076083   26.905459
 H   -1.766879    8.106544   26.742625
 H    7.846059   -0.527231   25.550325
 H    8.374094    0.771422   22.437428
 H    6.744249    0.616683   21.936621
