50 
3cwk_ligand_ani-2x.xyz
 C   22.069194   27.855314   16.694511
 C   21.021158   28.708173   15.951715
 C   20.414756   27.975013   14.760714
 C   19.709251   26.705797   15.240229
 C   20.536713   25.884492   16.196341
 C   21.580436   26.412618   16.873793
 C   22.371002   25.635920   17.841097
 C   21.885245   25.063842   18.958406
 C   22.662979   24.345175   19.968197
 C   22.046763   23.971151   21.112888
 C   22.663577   23.275391   22.227809
 C   21.977851   22.915404   23.328656
 C   22.512408   22.202941   24.492737
 C   21.647532   21.942897   25.497463
 C   21.942444   21.241718   26.770259
 C   22.304450   28.481577   18.076183
 C   23.396497   27.852498   15.916217
 C   20.077145   24.462575   16.377959
 C   24.113678   24.048742   19.707082
 C   23.968773   21.813086   24.507406
 O   23.004733   20.779855   27.111093
 O   20.884898   21.127433   27.611133
 H   21.491282   29.651125   15.643501
 H   20.218982   28.972529   16.656582
 H   21.201741   27.713310   14.040128
 H   19.708077   28.622807   14.229564
 H   19.417856   26.080643   14.385452
 H   18.767574   26.972223   15.744773
 H   23.450443   25.637838   17.675955
 H   20.818313   25.132830   19.170271
 H   20.989288   24.210980   21.226187
 H   23.728120   23.046576   22.151811
 H   20.918456   23.161734   23.384982
 H   20.622947   22.284097   25.363366
 H   23.074342   27.937095   18.630042
 H   22.621566   29.526324   17.977503
 H   21.383948   28.449880   18.669704
 H   23.787395   28.873815   15.833790
 H   24.154826   27.250343   16.425841
 H   23.280278   27.452624   14.901895
 H   20.888117   23.810022   16.711332
 H   19.265000   24.394274   17.114696
 H   19.684321   24.058649   15.438121
 H   24.774859   24.722643   20.267160
 H   24.366429   23.023716   19.998626
 H   24.356152   24.152338   18.649019
 H   24.603175   22.707107   24.508693
 H   24.199720   21.222811   25.393114
 H   24.214469   21.231404   23.612549
 H   20.103241   21.537151   27.218352
