50 
3cwk_ligand_xtb.xyz
 C   22.128593   27.844294   16.577103
 C   21.046143   28.653149   15.850171
 C   20.355323   27.832798   14.772911
 C   19.641545   26.657086   15.425020
 C   20.502005   25.927560   16.420323
 C   21.599304   26.468493   16.968611
 C   22.415346   25.774405   17.958321
 C   21.940190   25.165873   19.058475
 C   22.727458   24.490285   20.058248
 C   22.091170   23.983269   21.148600
 C   22.668346   23.293783   22.249355
 C   21.933866   22.834148   23.289667
 C   22.446591   22.131323   24.433799
 C   21.571716   21.736313   25.394961
 C   21.874968   21.015505   26.628390
 C   22.530433   28.622002   17.838058
 C   23.360921   27.682486   15.675347
 C   20.014135   24.540688   16.724535
 C   24.205697   24.387148   19.837090
 C   23.914970   21.867158   24.514504
 O   22.960083   20.645905   27.005157
 O   20.791441   20.752524   27.406656
 H   21.496518   29.548262   15.416081
 H   20.297209   28.975975   16.577340
 H   21.087980   27.466918   14.052492
 H   19.637163   28.450977   14.230217
 H   19.294013   25.958759   14.659566
 H   18.751447   27.019949   15.952061
 H   23.483161   25.817815   17.794066
 H   20.875291   25.197315   19.246660
 H   21.016457   24.115531   21.200784
 H   23.735850   23.135673   22.250658
 H   20.863638   23.003656   23.273243
 H   20.523239   21.974756   25.246641
 H   23.364823   28.149414   18.349420
 H   22.823638   29.635426   17.570797
 H   21.694606   28.676857   18.532562
 H   23.702713   28.656722   15.331686
 H   24.179204   27.211034   16.213541
 H   23.131351   27.068855   14.808088
 H   20.772379   23.942424   17.220996
 H   19.131698   24.580652   17.363969
 H   19.723059   24.040711   15.801156
 H   24.652182   25.381462   19.835971
 H   24.693546   23.797269   20.605069
 H   24.407491   23.925322   18.871468
 H   24.462767   22.808334   24.499192
 H   24.155353   21.332204   25.426315
 H   24.232677   21.272716   23.659018
 H   19.972703   21.087317   27.020541
