29 
3cyz_ligand_xtb.xyz
 O   12.044681   -6.474637   -2.710574
 C   13.232598   -6.649514   -2.618099
 C   13.963855   -7.676281   -3.447577
 C   14.094021   -5.844991   -1.667044
 C   15.193509   -5.061088   -2.389765
 C   16.000153   -4.214995   -1.405847
 C   17.020703   -3.302964   -2.086203
 C   18.146051   -4.073503   -2.789044
 C   19.205607   -3.142702   -3.258284
 C   19.595730   -2.985307   -4.520994
 C   20.656523   -2.016364   -4.867506
 O   20.967523   -1.938737   -6.179578
 O   21.225976   -1.327162   -4.065661
 H   13.265190   -8.431255   -3.798541
 H   14.389948   -7.179681   -4.318061
 H   14.767858   -8.141547   -2.884865
 H   14.550165   -6.531915   -0.949883
 H   13.448078   -5.155418   -1.120314
 H   14.734888   -4.407662   -3.135329
 H   15.856834   -5.755644   -2.905666
 H   16.514112   -4.871816   -0.700016
 H   15.311186   -3.590400   -0.833102
 H   17.464058   -2.650711   -1.331150
 H   16.513368   -2.667842   -2.815212
 H   17.749231   -4.643342   -3.630222
 H   18.588500   -4.772498   -2.073275
 H   19.686929   -2.533530   -2.503496
 H   19.152884   -3.560719   -5.325035
 H   20.439839   -2.540177   -6.720455
