29 
3cyz_ligand_aiqm1.xyz
 O   12.070812   -6.406628   -2.815647
 C   13.248428   -6.632448   -2.640732
 C   13.958379   -7.734131   -3.395925
 C   14.080792   -5.809840   -1.677018
 C   15.192150   -5.026510   -2.374282
 C   16.005381   -4.189462   -1.392902
 C   17.047229   -3.295472   -2.058884
 C   18.123675   -4.075267   -2.817761
 C   19.231085   -3.183061   -3.276575
 C   19.579709   -2.982166   -4.553244
 C   20.686180   -2.048950   -4.887871
 O   20.952324   -1.903935   -6.210468
 O   21.332441   -1.437998   -4.080107
 H   13.225465   -8.426783   -3.801416
 H   14.521772   -7.294698   -4.222369
 H   14.671115   -8.259380   -2.758715
 H   14.528456   -6.485748   -0.939615
 H   13.402613   -5.134169   -1.153969
 H   14.755766   -4.371843   -3.136457
 H   15.848474   -5.728501   -2.900928
 H   16.500592   -4.855680   -0.676473
 H   15.326588   -3.559798   -0.813319
 H   17.529527   -2.684270   -1.293081
 H   16.547950   -2.603121   -2.745152
 H   17.687157   -4.592447   -3.678384
 H   18.536389   -4.840820   -2.154900
 H   19.776059   -2.629578   -2.513931
 H   19.060475   -3.497545   -5.357296
 H   20.353019   -2.452151   -6.723379
