29 
3cyz_ligand_ani-2x.xyz
 O   12.058894   -6.751636   -2.486441
 C   13.267964   -6.733344   -2.570911
 C   14.004267   -7.562605   -3.601822
 C   14.109983   -5.886423   -1.630505
 C   15.209819   -5.073427   -2.314445
 C   15.971944   -4.183517   -1.333984
 C   16.993408   -3.263372   -2.005867
 C   18.082242   -4.010640   -2.784435
 C   19.147894   -3.091591   -3.300647
 C   19.594072   -3.034630   -4.554975
 C   20.672319   -2.076619   -4.930217
 O   21.043302   -2.098125   -6.231732
 O   21.208524   -1.316293   -4.164646
 H   13.304795   -8.244759   -4.087653
 H   14.455344   -6.909323   -4.358246
 H   14.817589   -8.132587   -3.136859
 H   14.564576   -6.564803   -0.891967
 H   13.416881   -5.233734   -1.088890
 H   14.762502   -4.451534   -3.102801
 H   15.909098   -5.757670   -2.812896
 H   16.480618   -4.818513   -0.592668
 H   15.253997   -3.569491   -0.773312
 H   17.473658   -2.637746   -1.241959
 H   16.471420   -2.577770   -2.688624
 H   17.641678   -4.577528   -3.616430
 H   18.544671   -4.746355   -2.110529
 H   19.611462   -2.407956   -2.585632
 H   19.179357   -3.674117   -5.334271
 H   20.527720   -2.756292   -6.717438
