35 
3d04_ligand_xtb.xyz
 C    3.562294   -0.944011   -0.593308
 C    4.855878   -0.769833   -0.146453
 C    5.123222    0.140285    0.872356
 O    6.408761    0.281105    1.288525
 C    4.079270    0.869385    1.429216
 C    2.787688    0.694797    0.969422
 C    2.516117   -0.214638   -0.042090
 C    1.113311   -0.374189   -0.569215
 O    0.200187   -0.241642    0.514390
 C    0.825244    0.659451   -1.659668
 C   -0.602937    0.524925   -2.141619
 O   -0.917415    0.771760   -3.302879
 C   -1.545845    0.149020   -1.116063
 C   -1.107704   -0.151762    0.193027
 C   -2.024427   -0.367303    1.201423
 C   -3.396668   -0.313989    0.935755
 O   -4.199937   -0.539403    1.996688
 C   -5.597234   -0.524657    1.808567
 C   -3.847829   -0.058388   -0.353114
 C   -2.936930    0.173179   -1.377222
 O   -3.406517    0.435411   -2.597271
 H    3.362686   -1.656070   -1.380549
 H    5.673996   -1.330963   -0.568304
 H    6.455510    0.933367    1.998070
 H    4.280315    1.576056    2.223682
 H    1.978734    1.257270    1.408968
 H    0.990878   -1.382436   -0.999433
 H    1.516532    0.542990   -2.494346
 H    0.950161    1.666956   -1.250152
 H   -1.685226   -0.588432    2.198790
 H   -6.027036   -0.729732    2.787564
 H   -5.942813    0.451897    1.457263
 H   -5.913550   -1.298697    1.103430
 H   -4.894228   -0.022339   -0.603801
 H   -2.634390    0.609430   -3.191750
