51 
3d0b_ligand_aiqm1.xyz
 O   -1.866366  -10.236214  -25.609049
 C   -1.425921  -11.041458  -24.796382
 N   -2.285149  -11.695377  -23.948212
 C    0.011322  -11.389578  -24.677553
 C    0.404223  -12.538996  -23.987163
 C    1.735136  -12.881923  -23.824745
 C    1.008290  -10.564171  -25.262744
 N    0.667784   -9.482550  -26.003666
 C    1.618033   -8.518007  -26.503447
 C    0.896128   -7.425001  -27.256088
 O    0.030043   -6.763073  -26.362646
 C   -0.760716   -5.797502  -27.018532
 C    2.362599  -10.905535  -25.070948
 C    2.712776  -12.042424  -24.366083
 N    4.086331  -12.368782  -24.206413
 C    5.083524  -11.507391  -23.741081
 C    4.982500  -10.201804  -23.245459
 C    6.157314   -9.592673  -22.827617
 C    7.395072  -10.256600  -22.894957
 C    7.489472  -11.552741  -23.375978
 C    4.676728  -13.564109  -24.560886
 C    3.975519  -14.747022  -25.155249
 C    4.988054  -15.553504  -25.970392
 C    6.229414  -15.863877  -25.132977
 C    6.929370  -14.613546  -24.623694
 O    8.135992  -14.577559  -24.456482
 C    6.030739  -13.498698  -24.330350
 C    6.313610  -12.186216  -23.801861
 H   -3.216699  -11.316465  -23.947798
 H   -1.947819  -12.018781  -23.060438
 H   -0.357871  -13.200949  -23.591565
 H    2.024213  -13.774468  -23.290265
 H   -0.319120   -9.273898  -26.068484
 H    2.328040   -8.993650  -27.190274
 H    2.201575   -8.072688  -25.688032
 H    0.320321   -7.856781  -28.085085
 H    1.624458   -6.721388  -27.677082
 H   -0.137656   -5.021377  -27.477588
 H   -1.378931   -6.260454  -27.794061
 H   -1.404341   -5.344252  -26.269649
 H    3.140361  -10.278427  -25.478691
 H    4.029392   -9.692851  -23.182392
 H    6.119108   -8.583595  -22.439101
 H    8.286631   -9.743593  -22.559213
 H    8.433334  -12.076671  -23.425626
 H    3.122422  -14.433959  -25.759549
 H    3.588712  -15.374643  -24.345342
 H    5.283934  -14.977198  -26.852495
 H    4.529989  -16.476856  -26.327382
 H    6.958796  -16.458708  -25.681093
 H    5.930028  -16.443820  -24.250841
