25 
3d51_ligand_aiqm1.xyz
 C    0.596594    1.199226    0.748537
 N    1.058553    2.344780    1.108328
 C    1.507294    0.021348    1.000929
 N   -0.668396    0.956269    0.287408
 O    0.094467    3.349652    0.886058
 O    2.868840    0.387745    1.028078
 C    1.324100   -1.033512   -0.074631
 O    1.995544   -2.233220    0.269556
 C   -0.145595   -1.373700   -0.220782
 O   -0.341483   -2.369799   -1.204158
 C   -0.909350   -0.135303   -0.657854
 C   -2.400123   -0.379089   -0.745815
 O   -2.979280    0.851188   -1.173621
 H    1.216151   -0.418501    1.965591
 H   -1.209449    1.788413    0.099139
 H    0.555327    4.142524    1.161943
 H    2.901385    1.324312    1.251714
 H    1.704430   -0.643712   -1.025523
 H    2.923558   -2.022865    0.394103
 H   -0.520203   -1.717787    0.754382
 H    0.292122   -3.069964   -1.023515
 H   -0.555282    0.134127   -1.663037
 H   -2.781567   -0.667496    0.239185
 H   -2.596933   -1.181340   -1.459798
 H   -3.930707    0.746805   -1.204716
