43 
3d7f_ligand_xtb.xyz
 I   24.939342   48.743921   45.427293
 C   23.920597   47.117624   44.504243
 C   22.611464   47.287025   44.097343
 C   24.586370   45.907853   44.333612
 O   25.860777   45.688118   44.710667
 C   23.884843   44.861977   43.732789
 C   22.578007   45.025609   43.329028
 C   21.922841   46.240461   43.503954
 C   20.489199   46.391316   43.100922
 C   19.538511   45.728952   44.136824
 C   19.599667   46.509629   45.431984
 O   18.798213   47.346619   45.753630
 O   20.663304   46.194214   46.166880
 N   18.178294   45.718727   43.669086
 C   17.783474   44.863882   42.683196
 O   18.527375   44.028237   42.195214
 N   16.497065   45.007989   42.282050
 C   15.966876   44.095182   41.299876
 C   17.022198   43.801173   40.231978
 O   17.617119   44.907730   39.759764
 O   17.215988   42.713477   39.768035
 C   14.678085   44.644098   40.672074
 C   14.816773   46.048717   40.075918
 C   14.500112   47.152179   41.049365
 O   14.557410   47.077939   42.251907
 O   14.143351   48.273621   40.424048
 H   22.124312   48.239761   44.242955
 H   26.234589   46.488776   45.112592
 H   24.401845   43.925415   43.599457
 H   22.053108   44.203193   42.867625
 H   20.217768   47.443256   42.993446
 H   20.309487   45.877841   42.155124
 H   19.874131   44.699486   44.300690
 H   20.698412   46.735892   46.972808
 H   17.583789   46.469533   43.985599
 H   15.871568   45.694331   42.680711
 H   15.740326   43.120030   41.759739
 H   18.312430   44.651565   39.133989
 H   14.366584   43.947284   39.893333
 H   13.906744   44.655925   41.444805
 H   15.843599   46.210151   39.737314
 H   14.164193   46.175007   39.211647
 H   13.962862   48.984285   41.060482
