59 
3da6_ligand_xtb.xyz
 N  -19.117272   16.772340  -33.659788
 C  -18.139035   18.747574  -33.405241
 C  -17.866491   20.080673  -33.679370
 C  -18.541664   20.671395  -34.729894
 C  -19.467166   19.966680  -35.496924
 C  -19.753980   18.637543  -35.240408
 C  -19.388516   12.517146  -33.237528
 C  -17.995301   13.427865  -35.481903
 C  -19.462268   11.825387  -34.465098
 C  -20.014725   12.024979  -32.068245
 C  -18.622850   14.441517  -31.941492
 C  -22.761313    9.646391  -32.022518
 C  -24.144908    9.766081  -31.956907
 C  -23.924510   12.122125  -32.096661
 C  -22.030720   10.849547  -32.107845
 C  -22.151853    8.311949  -31.970726
 C  -24.410599    5.398710  -30.120305
 N  -23.108464    5.190631  -30.690534
 C  -22.388791    6.143696  -31.308727
 N  -22.888930    7.377055  -31.374305
 N  -21.204204    5.753611  -31.805612
 C  -20.490278    6.686236  -32.403024
 C  -20.907212    8.003948  -32.520932
 C  -24.744903   11.014469  -31.996287
 N  -22.604974   12.040369  -32.143747
 O  -20.686439   10.807428  -32.151282
 C  -19.899781   12.676487  -30.860942
 C  -20.536896   12.131036  -29.621072
 C  -19.203106   13.892152  -30.821817
 C  -18.792255   12.277497  -35.566493
 C  -17.925837   14.136169  -34.313909
 C  -18.646702   13.726085  -33.171858
 N  -17.967979   15.672511  -31.845901
 C  -18.216037   16.765424  -32.626980
 N  -17.625331   17.913278  -32.440754
 C  -19.082508   18.043773  -34.190060
 H  -17.149941   20.626095  -33.086826
 H  -18.349618   21.707682  -34.966807
 H  -19.971459   20.468978  -36.309140
 H  -20.471113   18.089246  -35.833394
 H  -17.431339   13.750307  -36.344347
 H  -20.053866   10.923628  -34.514467
 H  -24.730519    8.863075  -31.878592
 H  -24.322052   13.127422  -32.139262
 H  -24.435776    5.042552  -29.088568
 H  -24.612771    6.466973  -30.139699
 H  -19.539641    6.359601  -32.806538
 H  -20.301815    8.739431  -33.017358
 H  -25.816874   11.120499  -31.952783
 H  -20.047510   12.522348  -28.732930
 H  -21.589144   12.416519  -29.590709
 H  -20.483931   11.043935  -29.608261
 H  -19.138549   14.420750  -29.881149
 H  -18.855175   11.740420  -36.501210
 H  -17.289945   15.006071  -34.249565
 H  -17.584213   15.915665  -30.943878
 H  -19.679782   15.999267  -33.970812
 H  -25.181258    4.874942  -30.693107
 H  -22.709912    4.265832  -30.691512
