16 
3dc2_ligand_aiqm1.xyz
 O   -2.203388   -1.207082    1.333671
 O   -2.033267   -1.272299   -0.907766
 C   -1.555089   -1.079203    0.328325
 C   -0.090516   -0.695760    0.324343
 O    0.384763   -0.592784    1.638338
 C    0.109831    0.617370   -0.451920
 O   -0.646977    1.659819    0.099097
 C    1.576647    0.991686   -0.470813
 O    2.003918    2.018711   -0.012518
 O    2.331465    0.059427   -1.066629
 H   -2.971260   -1.483908   -0.820019
 H    0.464323   -1.482216   -0.198111
 H   -0.377735   -0.634362    2.224304
 H   -0.210087    0.448126   -1.485525
 H   -0.030137    2.294291    0.477838
 H    3.248009    0.358284   -1.012417
