16 
3dc2_ligand_dft.xyz
 O    2.632995   -0.779243    0.327642
 O    2.270297    1.232621   -0.609149
 C    1.910437    0.162196    0.105489
 C    0.478105    0.238529    0.607571
 O    0.220264   -0.846315    1.446595
 C   -0.478083    0.237120   -0.608087
 O   -0.220258   -0.849708   -1.444572
 C   -1.910429    0.161997   -0.105870
 O   -2.633054   -0.779852   -0.326101
 O   -2.270227    1.233931    0.606500
 H    3.176152    1.076481   -0.921955
 H    0.344506    1.175114    1.162523
 H    0.921872   -1.495198    1.276324
 H   -0.344442    1.172422   -1.165192
 H   -0.922286   -1.497870   -1.273227
 H   -3.176111    1.078529    0.919589
