18 
3deh_ligand_aiqm1.xyz
 O  -51.061569   13.719989  -21.395926
 C  -49.882986   13.954753  -21.320286
 N  -49.122956   13.538023  -20.239259
 C  -49.125009   14.731090  -22.408006
 O  -49.726914   15.124414  -23.380076
 C  -47.674553   14.959704  -22.203628
 C  -47.027447   14.481976  -21.057296
 C  -45.666829   14.701139  -20.874638
 C  -47.767903   13.732078  -20.007230
 O  -47.248947   13.301862  -19.002290
 C  -46.950561   15.659439  -23.168507
 C  -45.586864   15.877999  -22.983863
 C  -44.946386   15.400584  -21.840791
 H  -49.618197   13.026893  -19.520421
 H  -45.194858   14.321251  -19.980659
 H  -47.463579   16.022043  -24.049086
 H  -45.026538   16.420618  -23.733141
 H  -43.887303   15.572845  -21.701198
