18 
3deh_ligand_xtb.xyz
 O  -51.044243   13.720476  -21.391590
 C  -49.866946   13.959789  -21.323508
 N  -49.112555   13.545884  -20.249644
 C  -49.120459   14.736324  -22.413804
 O  -49.717938   15.130812  -23.385987
 C  -47.680373   14.954619  -22.196659
 C  -47.032479   14.477621  -21.050757
 C  -45.670574   14.704608  -20.882643
 C  -47.763409   13.733065  -20.005952
 O  -47.258412   13.298939  -18.998581
 C  -46.948675   15.653180  -23.156409
 C  -45.595031   15.873567  -22.979894
 C  -44.955649   15.399405  -21.842989
 H  -49.617350   13.031481  -19.530533
 H  -45.193836   14.327073  -19.990637
 H  -47.466197   16.013094  -24.033058
 H  -45.036302   16.415149  -23.728043
 H  -43.898972   15.571614  -21.705612
