32 
3dg8_ligand_ani-2x.xyz
 C   26.999802    4.805588   62.361046
 C   27.196942    6.008942   63.029649
 C   27.874496    7.045157   62.392465
 C   28.359391    6.885488   61.095371
 C   28.175144    5.661495   60.445499
 C   27.488491    4.617695   61.066339
 O   26.323757    3.853853   63.056595
 C   26.085700    2.626371   62.405141
 O   28.014895    8.187348   63.114867
 C   28.689758    9.262554   62.498639
 N   28.660825    5.539300   59.131227
 C   29.137542    4.369885   58.571777
 N   29.252182    4.383110   57.173047
 C   29.025312    5.408416   56.249043
 N   29.415352    6.682932   56.690442
 N   29.462777    3.278787   59.155350
 N   28.515200    5.272337   55.091115
 H   26.820509    6.140804   64.036925
 H   28.890981    7.683273   60.587531
 H   27.327587    3.695268   60.517484
 H   25.474291    2.764632   61.503962
 H   27.026561    2.134143   62.126814
 H   25.545004    2.002714   63.118375
 H   29.725327    8.997793   62.248519
 H   28.172444    9.593491   61.588856
 H   28.691388   10.073768   63.227946
 H   28.603680    6.344363   58.512449
 H   29.377961    3.449677   56.809677
 H   29.321917    7.339473   55.923309
 H   30.354101    6.702356   57.078043
 H   29.462320    3.385766   60.166078
 H   28.260363    4.302324   54.911518
