54 
3dnj_ligand_dft.xyz
 N   -1.126983    0.793089    0.433328
 C   -1.138794   -0.566746    1.085389
 C    0.346612   -0.779038    1.417852
 O    0.814854   -0.173272    2.362374
 C   -1.867121   -1.555247    0.171889
 C   -3.290380   -1.111476   -0.082133
 C   -4.280774   -1.292463    0.885972
 C   -3.635165   -0.450811   -1.267682
 C   -5.574674   -0.831796    0.682864
 C   -4.923060    0.019689   -1.482783
 C   -5.902112   -0.169733   -0.504502
 O   -7.135004    0.308093   -0.768552
 N    1.105070   -1.459923    0.511555
 C    2.424957   -0.896650    0.245238
 C    2.176705    0.533246   -0.273201
 O    1.236726    0.756959   -1.044527
 C    3.181887   -1.718518   -0.799720
 C    3.390638   -3.195271   -0.429777
 C    4.115237   -3.359569    0.907906
 C    4.150146   -3.897018   -1.558420
 N    3.013713    1.487150    0.161525
 C    2.879603    2.896400   -0.166497
 C    1.580207    3.478787    0.395218
 O    0.697324    2.872741    0.961875
 C    3.034041    3.183917   -1.666782
 O    1.545081    4.794684    0.196618
 H   -0.747146    1.519541    1.059119
 H   -0.461028    0.796354   -0.369135
 H   -2.070424    1.043338    0.115028
 H   -1.674027   -0.452639    2.029703
 H   -1.342405   -1.645699   -0.787617
 H   -1.835413   -2.538538    0.652714
 H   -4.046433   -1.812105    1.812233
 H   -2.891413   -0.324729   -2.052948
 H   -6.332387   -0.992803    1.445446
 H   -5.193525    0.519211   -2.406541
 H   -7.742656    0.092777   -0.049836
 H    0.634552   -1.807670   -0.312848
 H    2.973762   -0.870375    1.188760
 H    4.159127   -1.242332   -0.954017
 H    2.648495   -1.643968   -1.757220
 H    2.403012   -3.667969   -0.338782
 H    4.314742   -4.416844    1.106335
 H    5.080294   -2.837478    0.897316
 H    3.525522   -2.978266    1.748398
 H    5.154871   -3.472901   -1.673508
 H    3.631066   -3.795484   -2.517736
 H    4.261940   -4.964768   -1.347653
 H    3.673088    1.237602    0.884094
 H    3.686681    3.413609    0.362502
 H    3.031007    4.261316   -1.841580
 H    3.986690    2.775303   -2.011852
 H    2.225777    2.722148   -2.235465
 H    0.724063    5.141299    0.582936
