52 
3dog_ligand_xtb.xyz
 O   -3.065140    0.308492   -2.107644
 C   -2.941884   -1.082785   -2.060562
 C   -2.985234   -1.635024   -0.616742
 C   -3.644122   -3.011857   -0.540566
 C   -3.862360   -3.470479    0.897487
 N   -1.656018   -1.720832   -0.047980
 C   -0.893340   -0.665483    0.282394
 N    0.302874   -0.987865    0.849106
 C    1.081935   -0.004458    1.215199
 N    0.692893    1.284551    1.020613
 N    1.371556    2.405667    1.313557
 C    0.584247    3.387332    0.905336
 C   -0.617398    2.935371    0.340100
 C   -1.741168    3.733548   -0.240667
 C   -2.253370    4.762603    0.768264
 C   -1.292090    4.420733   -1.532355
 C   -0.528162    1.554630    0.421672
 N   -1.335674    0.551965    0.043731
 N    2.258144   -0.196971    1.826395
 C    2.890221   -1.493807    1.928683
 C    3.877598   -1.713748    0.809445
 C    5.245111   -1.690120    1.042643
 C    6.136849   -1.860515   -0.002831
 C    5.667576   -2.046853   -1.291330
 C    4.303464   -2.065287   -1.532350
 C    3.413216   -1.900650   -0.487201
 H   -2.466505    0.674263   -1.425636
 H   -2.004465   -1.411977   -2.538037
 H   -3.778785   -1.480563   -2.641443
 H   -3.561018   -0.917084   -0.017291
 H   -3.021026   -3.734181   -1.074044
 H   -4.607655   -2.964297   -1.049062
 H   -4.526375   -2.782291    1.414919
 H   -4.313055   -4.459818    0.913528
 H   -2.923763   -3.512061    1.444607
 H   -1.231390   -2.626157    0.064830
 H    0.910590    4.401372    1.032326
 H   -2.550942    3.036310   -0.480217
 H   -2.566672    4.271796    1.687246
 H   -1.473221    5.480979    1.010288
 H   -3.103506    5.302093    0.356792
 H   -2.116076    4.982237   -1.966509
 H   -0.958730    3.681862   -2.257468
 H   -0.470764    5.106151   -1.332802
 H    2.817190    0.635907    1.950844
 H    2.087039   -2.232260    1.877580
 H    3.388960   -1.560469    2.899232
 H    5.615144   -1.542957    2.047514
 H    7.199533   -1.844727    0.189227
 H    6.363045   -2.177473   -2.107014
 H    3.934106   -2.210137   -2.536870
 H    2.348214   -1.915079   -0.667041
