52 
3dog_ligand_ani-2x.xyz
 O   -3.825725    0.299119   -1.979319
 C   -3.879168   -1.081911   -1.738388
 C   -3.431149   -1.479646   -0.319877
 C   -4.117005   -2.755393    0.159608
 C   -3.876741   -3.047476    1.638609
 N   -1.986081   -1.665720   -0.231783
 C   -1.087952   -0.665107   -0.154135
 N    0.201729   -1.065399    0.057405
 C    1.089787   -0.107524    0.146800
 N    0.708889    1.213491    0.047466
 N    1.524624    2.307086    0.139350
 C    0.689659    3.319221   -0.035979
 C   -0.657278    2.933830   -0.237268
 C   -1.912895    3.743719   -0.397840
 C   -2.606413    4.018124    0.947114
 C   -1.654309    5.053826   -1.142807
 C   -0.610536    1.540507   -0.175568
 N   -1.547742    0.589351   -0.296454
 N    2.399932   -0.335948    0.311498
 C    2.868085   -1.671771    0.663143
 C    4.351545   -1.817326    0.422130
 C    5.198687   -2.302955    1.416555
 C    6.561609   -2.455079    1.175514
 C    7.089537   -2.125827   -0.068711
 C    6.248857   -1.642625   -1.068660
 C    4.889491   -1.486815   -0.822020
 H   -2.997024    0.625167   -1.577504
 H   -3.273486   -1.655305   -2.461312
 H   -4.925942   -1.380087   -1.875874
 H   -3.703982   -0.644714    0.338239
 H   -3.774780   -3.593741   -0.463701
 H   -5.196221   -2.659195   -0.017591
 H   -4.215563   -2.207792    2.256458
 H   -4.423173   -3.940784    1.956589
 H   -2.815176   -3.208768    1.854015
 H   -1.605652   -2.591612   -0.102624
 H    1.075752    4.330459   -0.012981
 H   -2.604836    3.136556   -1.005877
 H   -2.863397    3.084883    1.457867
 H   -1.944762    4.593563    1.603837
 H   -3.527794    4.590172    0.793106
 H   -2.589058    5.603109   -1.302750
 H   -1.193110    4.860059   -2.116077
 H   -0.979989    5.697545   -0.567098
 H    2.958571    0.465657    0.580134
 H    2.308341   -2.383358    0.046108
 H    2.626009   -1.908755    1.709622
 H    4.786769   -2.563767    2.390141
 H    7.211029   -2.833281    1.961711
 H    8.152956   -2.245242   -0.260622
 H    6.654696   -1.382354   -2.043330
 H    4.229987   -1.100566   -1.596970
