66 
3dri_ligand_aiqm1.xyz
 N    0.200063   -0.875188   -1.894797
 C   -0.376348   -2.217827   -2.233244
 C   -1.466023   -2.579047   -1.215617
 O   -2.578898   -2.882148   -1.617222
 C    0.710610   -3.278883   -2.315843
 N   -1.120309   -2.537819    0.086240
 C   -2.147084   -2.589620    1.140090
 C   -2.722837   -1.166941    1.252768
 O   -2.369728   -0.393777    2.134440
 C   -1.533196   -3.052754    2.441253
 N   -3.605325   -0.846686    0.272531
 C   -3.911324    0.523231   -0.119726
 C   -2.694132    1.127996   -0.846035
 O   -2.129240    0.473002   -1.733329
 C   -4.530419    1.391528    0.987703
 O   -3.604348    1.984249    1.878109
 N   -2.315807    2.369379   -0.527380
 C   -1.107577    2.935581   -1.088050
 C    0.131611    2.295050   -0.430132
 O    0.085196    1.186217    0.086171
 C   -1.157488    4.451457   -0.977043
 N    1.287113    2.996257   -0.499944
 C    2.515879    2.512261    0.094198
 C    2.892110    1.114888   -0.445956
 O    2.504028    0.715783   -1.537021
 C    2.424770    2.586515    1.625806
 O    3.741026    2.449650    2.155390
 N    3.692232    0.385459    0.349017
 C    4.122182   -0.948084   -0.004022
 C    3.051186   -1.932389    0.441983
 O    3.512326   -3.016679    1.054021
 C    5.504451   -1.245470    0.541317
 O    1.868279   -1.764564    0.219104
 H    0.718295   -0.886813   -1.005682
 H   -0.572847   -0.179056   -1.832767
 H    0.874109   -0.561557   -2.591454
 H   -0.889472   -2.130606   -3.183284
 H    0.260297   -4.218736   -2.622412
 H    1.468423   -3.013138   -3.053153
 H    1.189281   -3.429208   -1.348886
 H   -0.193307   -2.234164    0.354657
 H   -2.925756   -3.270220    0.799166
 H   -2.286939   -3.064443    3.224412
 H   -1.122813   -4.054183    2.323766
 H   -0.744524   -2.367876    2.748631
 H   -3.699616   -1.532195   -0.465127
 H   -4.669385    0.434631   -0.898191
 H   -5.065975    2.211377    0.509645
 H   -5.251027    0.775862    1.527326
 H   -3.096900    1.253828    2.263248
 H   -2.656888    2.734577    0.356566
 H   -1.064953    2.643764   -2.136947
 H   -1.105471    4.771872    0.063312
 H   -0.353327    4.928817   -1.531605
 H   -2.093448    4.806078   -1.401319
 H    1.310889    3.873211   -0.986456
 H    3.316221    3.176812   -0.229687
 H    1.767214    1.801603    2.002131
 H    2.002159    3.555614    1.890930
 H    3.712411    2.627775    3.094372
 H    4.016183    0.794462    1.214215
 H    4.118671   -1.013385   -1.093140
 H    2.755016   -3.574315    1.274680
 H    6.202822   -0.511610    0.148355
 H    5.513418   -1.198118    1.628993
 H    5.829254   -2.237087    0.241930
