53 
3ds6_ligand_xtb.xyz
 C   32.988140   28.852906   61.870062
 C   31.632558   28.935439   61.475860
 C   30.731640   27.941507   61.901943
 C   31.177755   26.906668   62.675485
 C   33.827850   29.907203   61.426405
 C   32.675637   24.387200   63.411819
 C   33.055709   23.249184   64.110346
 C   33.631455   25.809586   65.104048
 O   32.602313   21.770389   62.306040
 C   34.024218   24.664267   65.787873
 C   32.529447   26.815440   63.073230
 C   33.420799   27.781521   62.668473
 N   33.404945   30.905433   60.710594
 N   32.142616   30.975920   60.325273
 C   31.279024   30.053898   60.662249
 C   32.958720   25.662225   63.886538
 C   33.751840   23.398857   65.305837
 C   33.927624   27.152766   65.699712
 C   32.722155   21.925997   63.506629
 C   32.220177   19.591039   64.001033
 C   31.266815   18.781879   64.826317
 C   32.728413   18.432064   64.802566
 C   29.890850   30.209661   60.178408
 C   29.054529   31.130639   60.794527
 C   27.745519   31.278061   60.372641
 C   27.271709   30.506658   59.326266
 C   28.109530   29.599293   58.701128
 C   29.424556   29.436386   59.112266
 C   30.335218   28.466438   58.421524
 N   32.548779   20.919358   64.398150
 H   29.693363   28.013094   61.612630
 H   30.491143   26.141486   63.007917
 H   34.878132   29.920038   61.686493
 H   32.165117   24.260486   62.468344
 H   34.557810   24.772348   66.721674
 H   34.463397   27.720590   62.942755
 H   34.107480   22.538093   65.854010
 H   33.867759   27.103374   66.785100
 H   34.938128   27.468713   65.439616
 H   33.232524   27.908188   65.341787
 H   32.184469   19.518496   62.922155
 H   30.570684   18.133404   64.318646
 H   30.868641   19.227608   65.725766
 H   33.312471   18.642388   65.686146
 H   33.040084   17.542632   64.278531
 H   29.438378   31.729360   61.607403
 H   27.099785   31.994727   60.857707
 H   26.250963   30.615767   58.990514
 H   27.738167   29.008243   57.875912
 H   31.272223   28.953219   58.154474
 H   30.571623   27.624594   59.073347
 H   29.871211   28.079994   57.517597
 H   32.591509   21.108576   65.386736
