48 
3e3b_ligand_aiqm1.xyz
 N  -24.555828   26.264249  -17.470392
 C  -24.992863   25.992728  -18.692743
 C  -25.865515   24.917525  -18.923564
 N  -26.295617   24.134035  -17.943499
 C  -25.845806   24.419986  -16.724104
 C  -24.977948   25.477913  -16.474080
 N  -26.314104   24.635044  -20.205770
 N  -26.320947   23.595373  -15.696032
 C  -27.028097   23.541474  -20.671389
 C  -27.292828   23.803337  -22.024043
 C  -26.691940   25.071857  -22.275466
 N  -26.111944   25.560139  -21.205968
 C  -27.412934   22.759309  -15.815875
 C  -27.594679   22.100990  -14.626374
 C  -26.556348   22.545239  -13.748570
 C  -25.794261   23.464180  -14.426487
 C  -28.008075   22.868681  -22.787926
 C  -28.425040   21.709070  -22.179832
 C  -28.139955   21.435800  -20.810407
 C  -27.435054   22.363262  -20.042746
 N  -28.527350   20.219188  -20.298932
 C  -28.548037   19.905759  -18.874802
 C  -28.781731   18.413383  -18.708814
 C  -29.606710   20.711175  -18.119050
 C  -28.617580   21.049263  -14.330264
 C  -28.156765   19.634454  -14.657745
 O  -28.900168   18.769468  -15.031746
 O  -26.847348   19.387144  -14.468130
 H  -24.678840   26.615728  -19.513626
 H  -24.629487   25.707634  -15.477718
 H  -26.665338   25.633191  -23.196308
 H  -27.958032   22.728934  -16.743467
 H  -26.398045   22.237712  -12.725788
 H  -24.912143   23.996289  -14.117782
 H  -28.225123   23.048430  -23.832684
 H  -28.970973   20.968803  -22.753143
 H  -27.199078   22.164940  -19.011718
 H  -29.220771   19.728373  -20.838342
 H  -27.563417   20.154441  -18.473583
 H  -29.752145   18.139555  -19.132861
 H  -28.005888   17.842466  -19.218170
 H  -28.782517   18.142245  -17.654789
 H  -29.470758   21.783002  -18.273985
 H  -30.607639   20.445422  -18.465354
 H  -29.549691   20.499044  -17.048973
 H  -29.541469   21.218986  -14.878152
 H  -28.869716   21.049864  -13.267154
 H  -26.404560   20.221919  -14.262053
