51 
3e3u_ligand_ani-2x.xyz
 O   20.260299   53.795355   15.792826
 C   20.124008   55.013627   15.821175
 C   18.734102   55.631663   15.883878
 C   17.965737   55.040554   17.075031
 C   18.648693   55.291306   18.419582
 C   17.819247   54.807961   19.608661
 C   18.507931   55.072256   20.945796
 C   18.031659   55.349671   14.541471
 N   16.663565   55.795126   14.551559
 O   16.504153   57.119565   14.932727
 C   15.538235   55.064041   14.485030
 O   14.431380   55.553745   14.678636
 N   21.210977   55.836741   15.801263
 C   22.535364   55.235566   15.858817
 C   23.454750   56.402525   15.453470
 C   22.726186   57.614356   16.035451
 C   21.247690   57.301274   15.787362
 C   22.849625   54.741096   17.237046
 O   23.818116   53.782455   17.314468
 C   23.954865   53.550340   18.658822
 C   23.072210   54.395950   19.324673
 N   22.387932   55.158143   18.370171
 C   24.799334   52.654551   19.293309
 C   24.722214   52.629968   20.681744
 C   23.838460   53.465801   21.380849
 C   23.002733   54.355863   20.720877
 H   18.792722   56.717396   16.000522
 H   16.958517   55.476375   17.086061
 H   17.854361   53.959241   16.916810
 H   19.629304   54.796865   18.442696
 H   18.844563   56.368949   18.533260
 H   16.837204   55.301901   19.596321
 H   17.625888   53.731788   19.499687
 H   19.485860   54.575008   20.992161
 H   18.680289   56.145162   21.092144
 H   17.907228   54.710010   21.786491
 H   18.565753   55.856971   13.728705
 H   18.041075   54.275983   14.338374
 H   15.527987   57.167218   15.027753
 H   15.718929   54.006025   14.236673
 H   22.601038   54.389133   15.171787
 H   24.476983   56.284077   15.823296
 H   23.495871   56.462384   14.360752
 H   22.906159   57.663321   17.114361
 H   23.036653   58.560935   15.586369
 H   20.906884   57.685815   14.815451
 H   20.606440   57.728932   16.566051
 H   25.476634   52.014043   18.738979
 H   25.359674   51.947689   21.237798
 H   23.805056   53.416682   22.466044
 H   22.318465   54.995599   21.271759
