27 
3e63_ligand_xtb.xyz
 C   33.584813   40.779062   36.366878
 C   32.893099   39.778184   37.041127
 C   33.393036   42.180774   36.136192
 N   32.307864   42.931530   36.514134
 C   33.410974   38.494908   37.037301
 C   34.619763   38.223794   36.364846
 C   35.326716   39.195446   35.699348
 C   34.799430   40.484806   35.700413
 N   35.228635   41.646722   35.156316
 N   34.380524   42.673112   35.422243
 C   32.705246   37.406929   37.731976
 C   32.140286   37.614772   38.988306
 C   31.475659   36.593671   39.641255
 C   31.360394   35.347198   39.049272
 C   31.915831   35.129069   37.799691
 C   32.583862   36.148329   37.147269
 H   31.955959   39.991694   37.534039
 H   31.862421   42.642512   37.370617
 H   32.454207   43.926014   36.435721
 H   35.009188   37.216771   36.396912
 H   36.255547   38.972245   35.196546
 H   36.043660   41.815550   34.593432
 H   32.241912   38.579972   39.463739
 H   31.048046   36.769430   40.618022
 H   30.840303   34.549732   39.559343
 H   31.825455   34.159953   37.330279
 H   32.999171   35.975822   36.164782
