28 
3e85_ligand_ani-2x.xyz
 N   19.639460   13.030091   61.118044
 C   20.101862   11.731696   61.247695
 N   19.642374   11.127851   62.405638
 O   20.827936   11.184672   60.437870
 C   19.916423   13.934078   60.071527
 C   19.600706   15.280442   60.285557
 C   19.829416   16.224951   59.293467
 C   20.369866   15.838676   58.070823
 C   20.677555   14.498430   57.859314
 C   20.458245   13.540883   58.844088
 C   19.908061    9.814893   62.846702
 C   19.108175    9.309641   63.877777
 C   19.322800    8.030803   64.374974
 C   20.343204    7.240192   63.855484
 C   21.140152    7.747620   62.834177
 C   20.935641    9.024798   62.322579
 H   19.159617   13.440709   61.905269
 H   18.936232   11.610768   62.941103
 H   19.176804   15.591317   61.237900
 H   19.581136   17.267078   59.478444
 H   20.549703   16.572546   57.290261
 H   21.101848   14.183025   56.908790
 H   20.704930   12.501511   58.673884
 H   18.308797    9.921000   64.290731
 H   18.689475    7.653368   65.173927
 H   20.517052    6.239604   64.241224
 H   21.940346    7.139761   62.418005
 H   21.556283    9.410398   61.524944
