28 
3e85_ligand_xtb.xyz
 N   19.697413   12.995890   61.088636
 C   20.147755   11.698254   61.198156
 N   19.656276   11.094493   62.335213
 O   20.878796   11.159563   60.400732
 C   19.972041   13.931923   60.086398
 C   19.391336   15.193427   60.208825
 C   19.620473   16.165158   59.254397
 C   20.431076   15.893445   58.165195
 C   21.008360   14.641265   58.042267
 C   20.786186   13.660359   58.991443
 C   19.877989    9.792749   62.795896
 C   19.255770    9.417519   63.985733
 C   19.432203    8.146887   64.497553
 C   20.230769    7.232798   63.831141
 C   20.849285    7.603928   62.649648
 C   20.680123    8.873323   62.127548
 H   19.088976   13.345853   61.815431
 H   19.050521   11.639204   62.932935
 H   18.756948   15.411137   61.058092
 H   19.163481   17.137794   59.363193
 H   20.610149   16.652938   57.419315
 H   21.641846   14.420576   57.196085
 H   21.236993   12.687986   58.892294
 H   18.630602   10.128011   64.510607
 H   18.943473    7.871063   65.420460
 H   20.368568    6.239720   64.231189
 H   21.473848    6.897617   62.123264
 H   21.162842    9.157922   61.208553
