60 
3e8r_ligand_ani-2x.xyz
 C   50.630037   31.572503   44.332107
 C   45.252813   28.173218   46.429513
 C   53.820833   27.696568   48.002177
 C   48.345115   30.791201   39.440929
 C   51.327946   30.522391   43.736167
 N   49.704406   35.175872   39.481701
 O   51.517970   34.075050   38.758440
 O   47.367648   30.986141   38.734175
 C   50.300441   34.081043   38.925315
 C   46.580294   28.520286   46.651632
 C   44.925608   26.874656   46.048925
 N   49.831445   26.943665   47.065725
 C   50.867111   31.249368   40.013278
 O   50.486821   31.745021   45.680808
 C   50.752003   31.379424   41.523970
 C   50.071137   32.433570   42.142241
 C   50.004281   32.524666   43.523952
 C   51.385632   30.444539   42.347483
 C   51.313470   30.987914   46.549201
 C   50.799314   29.577920   46.786747
 C   49.026986   27.925713   46.729202
 C   49.484907   29.262395   46.561431
 C   51.131598   27.238251   47.345801
 C   51.673565   28.546021   47.249726
 C   53.035837   28.749225   47.603857
 C   53.283820   26.391159   48.069110
 C   51.972669   26.166787   47.748662
 C   47.596386   27.573534   46.499284
 C   49.373897   32.953337   38.625429
 C   49.633371   31.548416   39.183879
 C   49.858512   31.859553   37.728319
 O   50.495020   36.316584   39.565311
 N   48.334203   29.870951   40.443860
 C   47.258100   26.268805   46.135411
 C   45.931901   25.923701   45.903600
 H   44.473575   28.921573   46.549330
 H   54.862278   27.862928   48.263208
 H   51.808788   29.757930   44.340533
 H   48.759672   35.421271   39.215922
 H   46.823544   29.533567   46.963474
 H   43.888837   26.602998   45.870173
 H   51.669464   31.906511   39.662346
 H   51.188001   30.223965   39.784432
 H   49.578186   33.194155   41.539374
 H   49.466962   33.336357   44.004700
 H   51.937622   29.622736   41.892810
 H   52.338797   30.971666   46.156681
 H   51.325853   31.554706   47.485869
 H   48.801394   30.027949   46.208509
 H   53.455731   29.751843   47.564215
 H   53.918195   25.564760   48.380767
 H   51.523882   25.178848   47.794694
 H   48.318024   33.201772   38.559548
 H   49.146542   31.447950   37.022096
 H   50.891827   31.942203   37.404242
 H   51.370150   35.970834   39.293067
 H   47.431487   29.462823   40.636557
 H   48.992767   29.917515   41.208331
 H   48.050465   25.531909   46.040187
 H   45.683863   24.905782   45.613567
