47 
3e92_ligand_xtb.xyz
 C   48.914858   34.334944   30.175205
 C   38.291655   25.419917   35.573609
 C   37.156690   26.223940   36.143666
 C   38.485041   26.870410   35.895245
 C   47.562616   34.549701   30.728351
 O   46.666219   33.536841   30.779225
 N   47.071748   35.644802   31.207434
 N   45.810946   35.382364   31.598081
 C   45.580572   34.130239   31.340554
 C   44.359411   33.400988   31.588335
 C   43.285317   34.050155   32.194473
 C   42.118034   33.353467   32.426278
 C   44.246847   32.060313   31.227145
 C   43.077075   31.357023   31.460549
 C   42.959611   29.914185   31.072484
 C   42.001927   32.015015   32.065418
 C   40.736112   31.293934   32.332063
 C   40.646657   30.450628   33.427730
 C   39.474900   29.756643   33.708807
 C   39.466904   28.875758   34.912552
 O   40.177495   29.083282   35.877915
 N   38.621104   27.817617   34.839920
 C   38.370459   29.941875   32.884006
 C   38.456233   30.787773   31.793559
 C   39.630454   31.465733   31.494368
 C   39.712142   32.372989   30.305425
 H   49.434384   33.567056   30.746474
 H   48.847394   34.004000   29.139900
 H   49.465916   35.268123   30.227831
 H   38.235155   25.133205   34.533965
 H   38.772572   24.686007   36.200510
 H   36.855408   26.044533   37.163427
 H   36.337618   26.477128   35.487086
 H   39.106582   27.150972   36.735216
 H   43.390687   35.086662   32.470365
 H   41.280617   33.842570   32.901946
 H   45.086115   31.567000   30.758317
 H   43.807320   29.606857   30.465325
 H   42.925976   29.286790   31.962529
 H   42.041153   29.739256   30.514070
 H   41.490983   30.325810   34.089516
 H   38.098404   27.647434   33.995760
 H   37.428820   29.457174   33.099887
 H   37.590943   30.927973   31.161052
 H   39.724946   33.414356   30.625927
 H   40.628696   32.193770   29.745794
 H   38.859087   32.226686   29.647408
