47 
3e92_ligand_dft.xyz
 C   -7.755826   -1.272859    1.212405
 C    7.807710   -1.140697    0.393427
 C    7.136363   -1.964406   -0.672510
 C    6.369923   -1.551655    0.547950
 C   -6.676063   -0.984472    0.238443
 O   -5.440347   -0.672566    0.702854
 N   -6.728280   -0.983883   -1.051209
 N   -5.455439   -0.652665   -1.495679
 C   -4.730818   -0.478706   -0.438075
 C   -3.318685   -0.116414   -0.355491
 C   -2.591793    0.060589   -1.533673
 C   -1.251576    0.409419   -1.457912
 C   -2.691622    0.053944    0.880191
 C   -1.346124    0.403915    0.963751
 C   -0.680939    0.574619    2.306465
 C   -0.620088    0.585796   -0.225032
 C    0.821538    0.972709   -0.182379
 C    1.800290   -0.016097   -0.172746
 C    3.155609    0.309386   -0.119962
 C    4.141963   -0.823329   -0.111561
 O    3.859752   -1.928250   -0.544261
 N    5.375943   -0.531442    0.410312
 C    3.526212    1.653337   -0.104596
 C    2.552003    2.645316   -0.122808
 C    1.194078    2.328820   -0.154376
 C    0.148872    3.414801   -0.175447
 H   -7.492268   -2.127394    1.843040
 H   -7.932976   -0.411209    1.863252
 H   -8.669945   -1.501208    0.663104
 H    8.007523   -0.096884    0.169031
 H    8.541867   -1.614414    1.037130
 H    7.399790   -3.012199   -0.767988
 H    6.873534   -1.472012   -1.602329
 H    6.138142   -2.331127    1.271129
 H   -3.082607   -0.077460   -2.491129
 H   -0.676157    0.547187   -2.368823
 H   -3.262946   -0.090335    1.792530
 H   -0.242804    1.573417    2.412588
 H   -1.395236    0.428380    3.121318
 H    0.136093   -0.143418    2.435172
 H    1.519654   -1.064372   -0.211179
 H    5.456685    0.277003    1.008917
 H    4.574646    1.938568   -0.116312
 H    2.853474    3.689585   -0.122814
 H   -0.455744    3.363433   -1.087361
 H   -0.545655    3.316936    0.666586
 H    0.607954    4.405888   -0.124940
