48 
3ebl_ligand_xtb.xyz
 C   50.499552   23.990636   -2.516564
 C   49.758373   24.534836   -1.290138
 C   50.548227   25.632266   -0.561311
 O   50.445919   26.807828   -1.326339
 C   52.030314   25.205624   -0.347425
 C   52.642438   25.037049   -1.732321
 C   54.132534   24.701301   -1.790504
 C   54.986514   25.930908   -1.962167
 O   54.620236   26.984772   -2.408020
 O   56.242375   25.723874   -1.544920
 C   54.279291   23.694802   -2.963506
 C   52.854408   23.133285   -3.239958
 C   51.960749   23.734825   -2.154535
 C   52.817606   21.606845   -3.290012
 C   53.922707   21.049240   -4.192176
 C   55.233903   21.848290   -4.044556
 C   55.254226   22.549722   -2.686488
 C   54.861735   24.256771   -4.267569
 C   55.250923   23.008597   -5.014906
 C   55.547234   22.932867   -6.298899
 C   52.761438   26.123967    0.619727
 C   51.997758   23.748259    0.119259
 O   51.971387   23.349423    1.247531
 O   51.999117   22.943068   -0.948878
 H   50.023728   23.068343   -2.851617
 H   50.464097   24.720183   -3.325305
 H   48.802629   24.958199   -1.598955
 H   49.561262   23.724104   -0.586829
 H   50.091348   25.787698    0.430088
 H   50.949478   27.510025   -0.900656
 H   52.415293   25.872266   -2.395650
 H   54.455225   24.196681   -0.874827
 H   56.780064   26.522625   -1.667955
 H   52.503398   23.521372   -4.200806
 H   52.924949   21.217247   -2.278384
 H   51.842992   21.281640   -3.656942
 H   54.093712   20.003338   -3.932993
 H   53.605977   21.084054   -5.236145
 H   56.088618   21.188106   -4.202263
 H   56.245328   22.950285   -2.467313
 H   54.949171   21.908422   -1.863383
 H   54.165708   24.888367   -4.818760
 H   55.759745   24.847656   -4.068408
 H   55.832181   22.002214   -6.759654
 H   55.520388   23.797266   -6.940463
 H   53.761857   25.748521    0.821179
 H   52.852589   27.126814    0.205488
 H   52.225297   26.169519    1.565227
