29 
3ebo_ligand_ani-2x.xyz
 C   37.980697   34.747135   29.317690
 C   37.143129   34.194293   30.217457
 C   36.861050   34.794631   31.516380
 C   37.618682   36.052584   31.753789
 C   37.564712   36.794498   32.956936
 C   38.284925   37.970241   33.114255
 C   39.084966   38.442238   32.071643
 C   39.169827   37.743300   30.876810
 C   38.441115   36.565574   30.748410
 O   38.582391   35.945939   29.540942
 O   36.081166   34.290284   32.304626
 O   36.792313   36.330359   33.958049
 O   39.760993   39.596503   32.285801
 C   38.819751   35.014902   26.974640
 C   39.111012   34.493259   25.720863
 C   38.914271   33.138636   25.462073
 C   38.424551   32.306651   26.464607
 C   38.125158   32.826777   27.718449
 C   38.317076   34.185612   27.984912
 H   36.613890   33.278824   29.992650
 H   38.238655   38.537152   34.039914
 H   39.780108   38.078381   30.044825
 H   36.859189   36.935445   34.708459
 H   40.272364   39.813342   31.495778
 H   38.975202   36.068608   27.183985
 H   39.496465   35.146331   24.941256
 H   39.144889   32.732539   24.480813
 H   38.271318   31.248126   26.270417
 H   37.761934   32.160536   28.496872
