30 
3ed0_ligand_xtb.xyz
 C  -51.491636  -14.911912  -11.117994
 O  -51.171298  -13.728599  -10.602967
 C  -50.467196  -15.843282  -11.288168
 C  -50.727126  -17.095872  -11.818621
 O  -49.703776  -17.960523  -11.963256
 C  -52.032428  -17.429149  -12.187596
 C  -53.061865  -16.520865  -12.027402
 C  -54.419738  -16.939783  -12.439502
 O  -54.631931  -18.044456  -12.905616
 C  -55.497006  -15.948013  -12.254666
 C  -56.780727  -16.302422  -12.626730
 C  -57.848568  -15.414254  -12.479933
 C  -59.224001  -15.828269  -12.891838
 C  -57.599956  -14.164446  -11.952495
 C  -56.311188  -13.774170  -11.565781
 O  -56.162383  -12.549244  -11.066203
 C  -55.233445  -14.673762  -11.714909
 C  -53.890058  -14.280476  -11.316491
 O  -53.667275  -13.145086  -10.838586
 C  -52.817684  -15.243943  -11.490255
 H  -51.996844  -13.185656  -10.545579
 H  -49.464241  -15.575115  -11.000093
 H  -50.018039  -18.792036  -12.341701
 H  -52.263508  -18.399799  -12.604259
 H  -56.940262  -17.288726  -13.036352
 H  -59.235801  -16.086253  -13.949734
 H  -59.531377  -16.711815  -12.334450
 H  -59.942698  -15.033039  -12.715434
 H  -58.394340  -13.445735  -11.820973
 H  -55.207305  -12.423500  -10.842117
