55 
3eig_ligand_ani-2x.xyz
 N   17.151627   64.207340   46.763544
 C   17.183082   63.912347   48.051844
 N   16.305372   62.964417   48.487819
 N   17.969298   64.445700   49.021397
 C   18.808386   65.385906   48.632010
 N   19.619891   65.964312   49.530833
 C   18.879810   65.810024   47.258222
 N   19.750118   66.776633   46.900185
 C   19.756012   67.098345   45.620187
 C   18.875700   66.457768   44.712457
 N   18.021632   65.516990   45.051470
 C   18.010687   65.169585   46.361061
 C   20.720451   68.195019   45.208820
 N   21.224004   68.136853   43.858007
 C   22.343167   67.258336   43.591106
 C   19.345983   70.233123   40.732250
 C   20.605491   69.661628   40.554782
 C   21.221718   68.959539   41.576682
 C   20.588959   68.798947   42.823007
 C   19.295472   69.337587   42.980193
 C   18.692753   70.044767   41.951536
 C   18.757473   70.985210   39.588148
 O   19.202203   70.869902   38.452948
 N   17.691506   71.792628   39.873173
 C   17.100386   72.614940   38.845431
 C   16.826543   73.983429   39.438796
 O   16.867551   74.236563   40.620542
 O   16.487228   74.885015   38.506728
 C   15.780584   72.041309   38.287481
 C   15.855650   70.575698   37.870176
 C   16.817361   70.226931   36.760265
 O   17.118956   69.099073   36.459167
 O   17.280340   71.302783   36.085956
 H   16.477628   62.571583   49.398497
 H   15.873182   62.384521   47.786540
 H   20.251355   66.685708   49.221043
 H   19.573632   65.680130   50.496032
 H   18.881106   66.746300   43.663967
 H   20.255128   69.174975   45.376330
 H   21.567764   68.141681   45.902673
 H   23.258708   67.808724   43.328034
 H   22.545930   66.672325   44.491961
 H   22.115207   66.560558   42.774194
 H   21.096977   69.777398   39.592668
 H   22.204945   68.531995   41.410420
 H   18.744130   69.176229   43.902849
 H   17.685925   70.428022   42.105031
 H   17.546042   72.116918   40.821821
 H   17.813500   72.710863   38.023047
 H   16.307225   75.716815   38.976744
 H   15.004226   72.125756   39.056576
 H   15.468415   72.663687   37.444546
 H   16.102961   69.932079   38.721313
 H   14.869035   70.241229   37.525293
 H   17.954589   70.956856   35.478201
