55 
3eig_ligand_xtb.xyz
 N   17.060044   64.704491   46.407711
 C   16.532867   65.109183   47.547511
 N   15.460797   64.436564   48.005270
 N   16.958924   66.125392   48.332260
 C   18.024373   66.787996   47.942152
 N   18.488369   67.806164   48.680115
 C   18.702967   66.436134   46.725050
 N   19.795116   67.095725   46.324379
 C   20.344692   66.705324   45.190897
 C   19.782951   65.650724   44.444050
 N   18.720050   64.990563   44.818717
 C   18.145847   65.359580   45.982392
 C   21.595038   67.426113   44.744299
 N   21.750736   67.478649   43.312478
 C   22.760977   66.649744   42.702382
 C   19.524989   70.194443   41.025991
 C   20.622671   69.531289   40.481628
 C   21.354486   68.633925   41.224427
 C   21.028907   68.372703   42.564218
 C   19.936827   69.062778   43.112859
 C   19.199839   69.948417   42.357722
 C   18.784998   71.143570   40.169467
 O   19.305616   71.781712   39.270419
 N   17.448204   71.227819   40.417325
 C   16.617087   72.164179   39.711547
 C   15.835358   73.007649   40.699831
 O   15.729516   72.763421   41.872217
 O   15.239779   74.047577   40.114922
 C   15.622825   71.475168   38.748593
 C   16.259736   70.303996   38.001878
 C   17.564882   70.624329   37.301977
 O   18.419387   69.808078   37.089207
 O   17.647848   71.890879   36.896999
 H   14.979617   64.780565   48.815151
 H   15.054443   63.732311   47.417567
 H   19.306811   68.291526   48.358127
 H   18.025395   68.059182   49.533786
 H   20.224103   65.347351   43.503577
 H   21.583374   68.435910   45.171985
 H   22.460976   66.908720   45.169535
 H   23.669025   67.217540   42.466676
 H   23.026675   65.843496   43.383566
 H   22.381938   66.201038   41.782345
 H   20.882460   69.729706   39.453086
 H   22.196416   68.146554   40.761578
 H   19.647565   68.898147   44.138171
 H   18.381697   70.474303   42.830195
 H   17.045860   70.763641   41.215940
 H   17.287438   72.808037   39.129938
 H   14.733799   74.563001   40.763938
 H   14.770596   71.093719   39.316219
 H   15.263762   72.224712   38.044427
 H   16.459572   69.472344   38.679172
 H   15.564715   69.947288   37.237409
 H   18.540061   72.069627   36.560721
