31 
3ej1_ligand_xtb.xyz
 N  -16.545271  205.006696  113.130100
 C  -14.374528  205.406283  113.541298
 C  -13.303815  205.517120  114.433966
 C  -13.564822  205.339305  115.766469
 C  -14.888387  205.051293  116.162151
 C  -13.552586  205.794144  111.159135
 C  -13.781317  205.605671  109.792352
 C   -9.950351  207.294053  112.477834
 C  -15.925230  205.232644  111.980320
 C  -14.560349  205.493270  112.153938
 N  -15.885568  204.933866  115.335204
 N  -15.624933  205.105859  114.062077
 N  -12.385223  206.253740  111.607910
 C  -11.449444  206.527691  110.698649
 N  -11.568556  206.364133  109.373200
 C  -12.730165  205.907678  108.944089
 N  -10.269433  207.022475  111.121240
 C   -8.737674  206.667570  113.108619
 C   -8.757269  208.137456  112.795373
 H  -12.324081  205.732564  114.039252
 H  -12.787035  205.411019  116.508908
 H  -15.141896  204.905150  117.201211
 H  -14.718618  205.229207  109.421761
 H  -10.847932  207.404881  113.071342
 H  -16.490246  205.211591  111.069536
 H  -12.813363  205.779571  107.871782
 H   -9.568278  207.166797  110.412021
 H   -8.122148  206.029866  112.493214
 H   -8.793493  206.357035  114.140125
 H   -8.825802  208.839913  113.611207
 H   -8.150488  208.485660  111.973217
