25 
3eko_ligand_aiqm1.xyz
 N   17.304809   -3.749954   51.334879
 C   15.303745   -1.521162   50.808836
 C   16.472392    0.566168   49.351539
 C   14.714817   -0.263541   50.806842
 C   17.773533   -5.058293   51.406985
 C   17.165799   -3.257897   52.635206
 C   17.869048   -5.403791   52.721686
 C   17.493955   -4.261585   53.500874
 C   16.523688   -1.755804   50.135129
 C   15.319381    0.769452   50.096261
 C   17.046639   -0.696902   49.341466
 C   17.276033   -3.013551   50.149767
 O   17.907582   -3.409081   49.176535
 O   14.791834    2.019232   50.078997
 O   18.134103   -0.855073   48.573107
 O   14.596366   -2.478842   51.451330
 H   16.904739    1.362668   48.764658
 H   13.780953   -0.127194   51.336559
 H   17.981494   -5.594731   50.499248
 H   16.864034   -2.238826   52.794415
 H   18.183753   -6.363364   53.093711
 H   17.470848   -4.191172   54.575557
 H   13.989977    2.034461   50.605581
 H   18.335063   -1.809048   48.531608
 H   15.044614   -3.331870   51.443322
