41 
3ekr_ligand_aiqm1.xyz
 N   17.014645   -3.579800   51.184326
 C   15.534763    1.085189   49.563894
 C   16.481402    0.585517   48.687042
 C   16.920481   -0.730133   48.825996
 C   17.016268   -2.907371   50.008050
 C   16.796941   -3.042693   52.532826
 C   17.716669   -5.249907   52.693062
 C   14.503981   -4.140955   52.443984
 C   12.730602   -3.485052   53.931508
 C   14.896104   -2.384393   54.062343
 C   13.192963   -4.284044   52.894476
 C   15.469760   -1.008900   50.732700
 C   13.581482   -2.544634   54.503940
 C   15.009333    0.286747   50.582071
 C   16.458130   -1.539447   49.893166
 C   15.367496   -3.202374   53.020164
 C   17.770566   -3.886046   53.372899
 C   17.710237   -4.875805   51.214186
 C   15.769258   -1.328066   54.685336
 O   17.527423   -3.451608   49.013169
 O   15.133352    2.374274   49.378618
 O   17.799093   -1.169757   47.915139
 H   16.861110    1.192888   47.876164
 H   17.067989   -1.989108   52.561377
 H   16.793900   -5.767417   52.961692
 H   18.558125   -5.891303   52.949905
 H   14.858844   -4.761023   51.631022
 H   11.715217   -3.585292   54.290010
 H   12.540044   -5.011439   52.432384
 H   15.032057   -1.625898   51.497612
 H   13.220547   -1.915399   55.309543
 H   14.239748    0.667413   51.239559
 H   18.773617   -3.462900   53.289931
 H   17.494227   -3.913380   54.424736
 H   17.194533   -5.587747   50.571017
 H   18.721133   -4.751835   50.821553
 H   16.705478   -1.740168   55.063747
 H   16.032544   -0.550309   53.963008
 H   15.253173   -0.849046   55.516697
 H   14.458665    2.584741   50.027651
 H   17.886098   -2.136520   48.076499
