41 
3ekr_ligand_xtb.xyz
 N   17.243653   -3.757326   50.990711
 C   14.833514    0.562437   50.386922
 C   16.214789    0.436400   50.438848
 C   16.806804   -0.803275   50.251064
 C   16.625773   -3.292912   49.878614
 C   17.166933   -3.152896   52.315526
 C   17.713773   -5.505304   52.489923
 C   14.737159   -3.787140   52.386481
 C   13.099926   -2.465387   53.517607
 C   15.418855   -1.780474   53.526352
 C   13.424627   -3.579274   52.765533
 C   14.640545   -1.780360   49.919981
 C   14.093851   -1.580459   53.891654
 C   14.045689   -0.549900   50.109682
 C   16.015440   -1.931838   50.024739
 C   15.739702   -2.897526   52.750759
 C   17.876770   -4.175584   53.223689
 C   17.810466   -5.094898   51.025118
 C   16.460420   -0.794702   53.964469
 O   16.595362   -3.932910   48.842370
 O   14.297259    1.791184   50.602531
 O   18.166744   -0.872556   50.307036
 H   16.828828    1.302880   50.620011
 H   17.716752   -2.207687   52.321545
 H   16.735668   -5.935633   52.704204
 H   18.478243   -6.228710   52.765412
 H   14.979552   -4.645382   51.777803
 H   12.076854   -2.286670   53.813837
 H   12.659755   -4.281883   52.469933
 H   14.034528   -2.646908   49.706337
 H   13.838307   -0.711657   54.481404
 H   12.971206   -0.450195   50.046595
 H   18.934728   -3.923610   53.308912
 H   17.440893   -4.192789   54.221001
 H   17.258985   -5.744205   50.342105
 H   18.855561   -5.059720   50.693858
 H   17.265610   -1.288861   54.506109
 H   16.889197   -0.282890   53.103234
 H   16.018143   -0.044779   54.615120
 H   13.337013    1.746026   50.519093
 H   18.460121   -1.745624   50.016880
