54 
3eos_ligand_xtb.xyz
 C   17.999392   16.720425   22.638744
 O   18.965080   16.793583   23.374354
 N   16.763535   16.350186   23.159769
 C   15.625113   16.258297   22.400074
 N   14.466320   15.965377   23.066265
 N   15.592426   16.481686   21.136481
 C   16.754033   16.850757   20.499552
 C   16.690241   17.094227   19.119860
 C   15.416833   16.925434   18.359766
 C   15.193428   15.435820   18.020424
 N   14.004679   15.146919   17.250247
 C   12.750896   15.390949   17.936593
 C   11.570517   14.813148   17.146606
 C   11.259339   15.646839   15.902240
 C   10.077796   15.063007   15.133012
 C    8.842536   14.985606   16.023660
 C    9.141611   14.150524   17.263987
 C   10.324148   14.735253   18.030345
 C   17.871797   17.454765   18.490582
 N   18.093465   17.748774   17.166195
 C   19.363955   18.034876   17.077556
 N   20.023062   18.310963   15.924629
 C   19.268137   18.607558   14.729642
 N   20.025626   17.961550   18.279385
 C   19.086094   17.580937   19.218001
 C   19.159092   17.349183   20.565969
 C   17.974335   16.979126   21.209375
 H   16.729835   16.185165   24.158102
 H   13.689314   15.744725   22.465487
 H   14.529313   15.433719   23.918652
 H   14.587151   17.279164   18.971508
 H   15.476158   17.499915   17.434099
 H   16.051579   15.076101   17.445664
 H   15.138996   14.869187   18.953508
 H   14.031833   15.670051   16.380619
 H   12.816088   14.883061   18.904052
 H   12.560750   16.459696   18.133612
 H   11.847256   13.802191   16.830979
 H   11.023452   16.670467   16.205508
 H   12.133087   15.680989   15.248985
 H    9.866828   15.678619   14.255559
 H   10.335088   14.060260   14.784096
 H    8.550490   15.993743   16.327347
 H    8.008771   14.548042   15.470194
 H    8.262014   14.114114   17.910822
 H    9.377798   13.127515   16.962164
 H   10.533481   14.120272   18.908580
 H   10.069314   15.739309   18.379284
 H   20.915720   18.772553   16.015492
 H   19.020847   19.670732   14.647562
 H   19.845683   18.305251   13.856685
 H   18.345016   18.035886   14.779019
 H   21.006451   18.104572   18.444759
 H   20.069200   17.435937   21.138350
