54 
3eos_ligand_aiqm1.xyz
 C   17.990924   16.779394   22.655389
 O   18.950572   16.935052   23.388739
 N   16.782607   16.313270   23.155507
 C   15.655223   16.149170   22.386192
 N   14.525135   15.767462   23.086966
 N   15.593746   16.368695   21.123545
 C   16.753697   16.828919   20.497463
 C   16.691908   17.071852   19.116498
 C   15.428315   16.824811   18.338765
 C   15.201849   15.324762   18.098028
 N   14.017476   14.990354   17.312303
 C   12.764199   15.413871   17.924893
 C   11.545346   14.797428   17.246029
 C   11.410791   15.239424   15.787119
 C   10.160330   14.650455   15.137048
 C    8.903681   15.017683   15.922871
 C    9.026633   14.554377   17.372194
 C   10.273650   15.146418   18.022253
 C   17.856547   17.509730   18.500060
 N   18.061692   17.806511   17.154846
 C   19.315910   18.161639   17.082564
 N   19.991287   18.461025   15.933547
 C   19.201833   18.626282   14.720138
 N   19.968267   18.172567   18.298123
 C   19.048047   17.717427   19.235958
 C   19.125172   17.493229   20.591160
 C   17.957664   17.037866   21.214124
 H   16.734881   16.205105   24.157286
 H   13.775579   15.514896   22.461434
 H   14.683510   15.071377   23.796881
 H   14.580373   17.233238   18.893812
 H   15.484380   17.342063   17.376926
 H   16.072748   14.911691   17.580967
 H   15.127953   14.812206   19.064486
 H   14.101904   15.402482   16.388825
 H   12.785323   15.095560   18.972259
 H   12.642520   16.512785   17.930973
 H   11.666727   13.706769   17.255781
 H   11.355930   16.335455   15.752266
 H   12.297735   14.946060   15.219909
 H   10.077060   14.990993   14.102006
 H   10.255465   13.559802   15.105345
 H    8.772797   16.105074   15.904049
 H    8.017852   14.581827   15.454375
 H    8.136443   14.831818   17.941842
 H    9.090831   13.461072   17.395215
 H   10.362381   14.803936   19.058332
 H   10.175408   16.238696   18.056918
 H   20.726064   19.139030   16.057375
 H   18.455306   19.418584   14.817592
 H   19.879310   18.847339   13.898180
 H   18.680582   17.695312   14.513728
 H   20.963826   18.231476   18.415114
 H   20.019615   17.642679   21.179800
