68 
3eq9_ligand_ani-2x.xyz
 C    6.965307   37.443292   30.393943
 O    7.245633   37.486755   29.203516
 C    8.026578   37.495430   31.482416
 C    9.433271   37.306697   30.923823
 C   10.522824   37.675285   31.930698
 N   10.456460   36.895053   33.156785
 C   10.880460   35.567737   33.207616
 N   10.637547   35.126707   34.489055
 C    9.776425   36.050390   35.244749
 C    9.753469   37.262030   34.284511
 O   11.374511   34.952927   32.288627
 O    9.213919   38.333309   34.446049
 C    8.384850   35.429112   35.437263
 C    8.291469   34.185729   36.072961
 C    7.059649   33.581067   36.293402
 C    5.890383   34.211475   35.877380
 C    5.971399   35.448335   35.246037
 C    7.206570   36.054239   35.029049
 C   10.415916   36.475195   36.570019
 C   11.803139   36.472350   36.709134
 C   12.395989   36.908145   37.888058
 C   11.607223   37.368167   38.939170
 C   10.222500   37.390673   38.803927
 C    9.633116   36.951232   37.623364
 N    5.676594   37.339159   30.817895
 C    4.600025   37.386129   29.845114
 C    4.424960   38.811840   29.293272
 O    4.734803   39.797031   29.948866
 C    3.382370   36.985093   30.691797
 C    3.682474   37.631428   32.050928
 C    5.210474   37.549719   32.186557
 N    3.859537   38.930245   28.061218
 C    3.682867   40.258287   27.472247
 C    3.281444   37.862712   27.245952
 C    2.450345   38.625187   26.210561
 C    3.201379   39.950886   26.053513
 H    7.951353   38.466312   31.997765
 H    7.804610   36.733145   32.239428
 H    9.580986   36.267985   30.606529
 H    9.550813   37.928858   30.030499
 H   11.507516   37.495784   31.495170
 H   10.451361   38.726946   32.221362
 H   10.498905   34.133951   34.596521
 H    9.197304   33.690620   36.419557
 H    7.013935   32.612757   36.785894
 H    4.924909   33.741988   36.043162
 H    5.062667   35.956225   34.928679
 H    7.259785   37.038606   34.572243
 H   12.414161   36.112710   35.886460
 H   13.478732   36.890940   37.986387
 H   12.072024   37.710139   39.860623
 H    9.601150   37.751006   39.619505
 H    8.549613   36.956642   37.511147
 H    4.805096   36.684629   29.031430
 H    2.428311   37.314278   30.265701
 H    3.355031   35.893429   30.773616
 H    3.385979   38.683079   32.029979
 H    3.165750   37.140152   32.880467
 H    5.540551   36.725841   32.834314
 H    5.618443   38.480346   32.600081
 H    2.946426   40.829811   28.050257
 H    4.626971   40.808514   27.508136
 H    4.070918   37.265071   26.769931
 H    2.668573   37.187193   27.852487
 H    2.351957   38.073524   25.272225
 H    1.443407   38.803300   26.604257
 H    2.577272   40.748845   25.642243
 H    4.062613   39.822329   25.387474
