68 
3eq9_ligand_xtb.xyz
 C    6.430982   37.428210   30.429290
 O    6.614391   37.474564   29.223416
 C    7.561065   37.499231   31.440945
 C    8.923732   37.393261   30.761567
 C   10.064340   37.740026   31.716819
 N   10.035039   36.904317   32.898554
 C   10.444887   35.564517   32.898334
 N   10.201417   35.097804   34.144822
 C    9.602006   36.074896   35.025620
 C    9.507824   37.289717   34.091310
 O   10.925443   34.975246   31.967513
 O    9.075005   38.383157   34.356755
 C    8.254856   35.583736   35.530974
 C    8.225312   34.399263   36.259419
 C    7.025835   33.894223   36.725301
 C    5.843294   34.570360   36.474010
 C    5.869672   35.757297   35.764074
 C    7.069874   36.263551   35.292164
 C   10.496439   36.462509   36.191552
 C   11.834223   36.096438   36.227192
 C   12.629869   36.481794   37.292344
 C   12.099026   37.242763   38.318962
 C   10.768007   37.622931   38.275889
 C    9.967392   37.235476   37.217234
 N    5.198739   37.300514   30.951947
 C    4.027631   37.229926   30.085943
 C    3.716975   38.642528   29.560651
 O    3.409706   39.540501   30.328912
 C    2.922842   36.735980   31.021534
 C    3.323022   37.343367   32.363869
 C    4.847392   37.239314   32.356133
 N    3.785350   38.837289   28.237445
 C    3.620365   40.177760   27.695228
 C    4.252435   37.909804   27.217959
 C    4.224669   38.724730   25.923915
 C    4.441928   40.153847   26.413515
 H    7.484363   38.452619   31.971951
 H    7.434848   36.696740   32.171808
 H    9.064994   36.380519   30.380872
 H    8.952720   38.074794   29.911055
 H   11.025687   37.588155   31.220898
 H    9.981339   38.773254   32.062545
 H   10.359473   34.139988   34.404663
 H    9.147821   33.878959   36.474512
 H    7.014877   32.973695   37.289537
 H    4.906462   34.176478   36.838509
 H    4.954137   36.298436   35.576104
 H    7.080307   37.200974   34.759145
 H   12.259492   35.513909   35.422962
 H   13.669068   36.188973   37.314872
 H   12.722515   37.543750   39.147453
 H   10.350752   38.224835   39.069068
 H    8.932311   37.537527   37.177566
 H    4.231142   36.541450   29.264696
 H    1.938723   37.066282   30.695579
 H    2.936544   35.645628   31.068959
 H    3.028674   38.391692   32.377914
 H    2.876302   36.827281   33.211517
 H    5.181094   36.283752   32.783090
 H    5.312869   38.054857   32.914005
 H    2.560194   40.361531   27.484465
 H    3.957721   40.911067   28.429150
 H    5.270693   37.587479   27.458573
 H    3.598229   37.035274   27.155384
 H    4.987670   38.396420   25.221806
 H    3.248257   38.640839   25.444023
 H    4.117137   40.903858   25.695790
 H    5.495596   40.312135   26.643422
