40 
3erd_ligand_xtb.xyz
 C    5.471440   -3.048293   -6.195934
 C    5.798542   -2.062547   -5.073892
 C    5.021064   -0.783069   -5.249231
 C    3.563565   -0.930693   -5.029380
 C    3.063234   -1.146714   -3.749284
 C    1.710838   -1.314830   -3.532373
 C    0.825536   -1.279094   -4.604642
 O   -0.502479   -1.452850   -4.353389
 C    1.314378   -1.070712   -5.888130
 C    2.670559   -0.897827   -6.094150
 C    5.576193    0.370886   -5.622485
 C    7.033655    0.518822   -5.842123
 C    7.534079    0.736713   -7.121873
 C    8.886470    0.905315   -7.338417
 C    9.771671    0.868224   -6.266105
 O   11.099686    1.042546   -6.516989
 C    9.282742    0.657952   -4.982961
 C    7.926569    0.484556   -4.777317
 C    4.798552    1.650314   -5.797670
 C    5.122249    2.634001   -4.672832
 H    4.407746   -3.276474   -6.205491
 H    5.743386   -2.622046   -7.159090
 H    6.024247   -3.974960   -6.059695
 H    6.869248   -1.857692   -5.075780
 H    5.532266   -2.515612   -4.115511
 H    3.743219   -1.170958   -2.910092
 H    1.318203   -1.476315   -2.540949
 H   -0.998486   -1.405755   -5.179352
 H    0.630108   -1.045873   -6.726938
 H    3.044297   -0.741205   -7.095654
 H    6.854177    0.762008   -7.961098
 H    9.279190    1.068244   -8.329570
 H   11.595623    0.994353   -5.691047
 H    9.966942    0.632036   -4.144128
 H    7.552749    0.326462   -3.776077
 H    3.727923    1.445053   -5.799017
 H    5.067215    2.105313   -6.754448
 H    4.847393    2.205960   -3.711301
 H    6.185922    2.862117   -4.659667
 H    4.569890    3.560943   -4.809019
