59 
3ewj_ligand_aiqm1.xyz
 C   48.994321   34.218687   39.771371
 C   48.556569   32.818963   39.342145
 C   49.014006   33.805290   38.325309
 C   50.282736   34.373011   40.480073
 O   51.325118   33.839359   40.181520
 O   50.160014   35.196761   41.538019
 C   47.086962   32.545331   39.493026
 N   46.977901   31.325634   40.080729
 O   46.180556   33.285982   39.167287
 C   48.234477   30.786326   40.583873
 C   49.271675   31.537677   39.714698
 C   48.447636   31.025132   42.066345
 C   49.404694   30.267014   42.736475
 C   49.694172   30.469889   44.086127
 C   49.002527   31.460791   44.784896
 C   48.032903   32.224544   44.132415
 C   47.759621   32.009243   42.788083
 O   49.191546   31.748367   46.107462
 C   50.242736   31.086717   46.784091
 C   49.873585   29.688948   47.234524
 N   49.207213   27.068323   48.040732
 C   48.296944   27.877656   47.538515
 C   48.602281   29.203651   47.109646
 C   50.477413   27.540195   48.193412
 C   50.869130   28.848529   47.817888
 C   52.213101   29.254531   48.037393
 C   53.122232   28.388489   48.593640
 C   52.731196   27.077866   48.956567
 C   51.439005   26.664241   48.761609
 C   46.913133   27.354338   47.405203
 C   46.696714   25.973057   47.341618
 C   45.411448   25.463658   47.207381
 C   44.319781   26.326522   47.142782
 C   44.522942   27.701519   47.219751
 C   45.810314   28.214200   47.348391
 H   48.204368   34.871569   40.111666
 H   48.251279   34.237752   37.694870
 H   49.989480   33.650073   37.888896
 H   51.029981   35.235632   41.955381
 H   46.075853   30.990853   40.372198
 H   48.286133   29.711768   40.391833
 H   49.467265   30.958507   38.810764
 H   50.220623   31.701892   40.218984
 H   49.943440   29.493887   42.200556
 H   50.437455   29.852850   44.570397
 H   47.503449   32.981225   44.696408
 H   47.005225   32.617976   42.303778
 H   51.142712   31.055791   46.166626
 H   50.458005   31.707559   47.652199
 H   47.833838   29.817714   46.662618
 H   52.521555   30.258721   47.775180
 H   54.142256   28.709428   48.759878
 H   53.457026   26.405151   49.393739
 H   51.106391   25.671867   49.036456
 H   47.550644   25.312771   47.405773
 H   45.258329   24.393173   47.158400
 H   43.317719   25.930849   47.040178
 H   43.678932   28.377981   47.183729
 H   45.950437   29.284568   47.428497
