59 
3ewj_ligand_xtb.xyz
 C   48.702163   34.059394   40.009629
 C   48.416075   32.669001   39.440897
 C   48.816082   33.774893   38.534498
 C   49.905202   34.257412   40.837152
 O   50.996316   33.782361   40.639952
 O   49.646498   35.041355   41.894872
 C   46.987186   32.211804   39.576599
 N   47.034968   31.001315   40.176964
 O   45.991523   32.805778   39.235358
 C   48.351634   30.593919   40.619163
 C   49.271546   31.459182   39.733131
 C   48.608297   30.884376   42.081660
 C   49.518379   30.112837   42.787647
 C   49.838302   30.399511   44.102835
 C   49.244546   31.485375   44.736660
 C   48.321114   32.259376   44.033507
 C   48.009066   31.961371   42.724845
 O   49.486214   31.876912   46.020111
 C   50.436151   31.167563   46.779715
 C   49.992171   29.787386   47.205147
 N   49.157114   27.220376   47.934010
 C   48.310931   28.068219   47.398864
 C   48.702175   29.372426   47.013550
 C   50.425300   27.601609   48.157255
 C   50.912373   28.896306   47.820010
 C   52.254904   29.208826   48.110688
 C   53.075235   28.283373   48.696750
 C   52.596431   27.004788   49.018905
 C   51.298747   26.668844   48.756295
 C   46.936915   27.590740   47.193914
 C   46.706981   26.218829   47.091300
 C   45.429116   25.732326   46.899112
 C   44.358061   26.607505   46.812546
 C   44.573875   27.970645   46.926358
 C   45.852601   28.462056   47.114809
 H   47.844742   34.627095   40.347364
 H   48.061414   34.208253   37.896208
 H   49.811974   33.734724   38.119212
 H   50.443407   35.147305   42.437506
 H   46.201809   30.536320   40.499027
 H   48.496889   29.525255   40.427871
 H   49.495485   30.940275   38.798881
 H   50.209153   31.710010   40.225349
 H   49.992236   29.270672   42.304419
 H   50.541315   29.764982   44.619248
 H   47.863691   33.097162   44.535493
 H   47.290586   32.574754   42.202748
 H   51.388312   31.108027   46.234241
 H   50.591043   31.785204   47.672161
 H   47.987294   30.028589   46.543332
 H   52.637594   30.191086   47.876970
 H   54.102000   28.535870   48.917093
 H   53.263020   26.290786   49.479612
 H   50.902027   25.695867   48.999855
 H   47.551085   25.551215   47.164923
 H   45.264292   24.667867   46.817179
 H   43.357703   26.228783   46.662522
 H   43.740097   28.655496   46.871343
 H   45.997641   29.526414   47.224734
