61 
3ezr_ligand_aiqm1.xyz
 C    1.478414   46.299815   -1.310916
 C   -9.587024   46.325704   -3.231207
 C   -9.368122   46.302541   -5.664841
 C    2.867299   46.282966   -1.269842
 C   -1.428052   45.589763   -0.940992
 C   -3.522696   45.779136   -2.205692
 C   -7.395424   46.106424   -4.338277
 C   -2.824577   45.704372   -0.992917
 C    3.564527   45.376960   -2.068327
 C   -6.059545   45.990143   -2.670284
 C   -6.210278   45.063033   -6.877415
 C   -7.843485   46.416954   -8.040339
 C   -6.810156   46.675054   -9.135823
 C    1.411386   42.712037   -4.445563
 C  -10.147684   46.382613   -4.492197
 C   -2.823505   45.736178   -3.424962
 C   -1.452390   45.616182   -3.381141
 C    2.851822   44.505875   -2.899676
 C   -0.741049   45.536311   -2.149395
 C    0.741729   45.451685   -2.136878
 C   -8.197751   46.186434   -3.186474
 C   -7.978410   46.167281   -5.625616
 C    1.461697   44.540403   -2.932146
 C   -4.894081   45.886604   -1.816662
 C   -5.205256   45.359685   -7.983176
 C   -6.362210   44.418342   -9.895376
 N   -6.058980   45.977981   -3.980125
 N   -5.025465   45.880123   -0.497964
 N   -7.314577   46.112050   -2.132212
 N   -3.772256   45.772977   -0.011982
 N   -7.170359   46.164276   -6.775375
 N    4.957803   45.291357   -1.996945
 N   -5.819365   45.618293   -9.281744
 O    0.721978   43.706969   -3.709456
 H    0.941139   47.007123   -0.689831
 H  -10.186045   46.390325   -2.333953
 H   -9.875692   46.353890   -6.615739
 H    3.402240   46.959272   -0.615646
 H   -0.900415   45.531958    0.003898
 H   -6.738800   44.115818   -7.072692
 H   -5.688979   44.966654   -5.931232
 H   -8.468033   47.305614   -7.938580
 H   -8.502687   45.577659   -8.319293
 H   -7.314375   46.820518  -10.094784
 H   -6.273921   47.598078   -8.897419
 H    2.075989   43.156723   -5.191242
 H    1.989542   42.059931   -3.787250
 H    0.641984   42.132505   -4.946546
 H  -11.221516   46.486773   -4.591874
 H   -3.361558   45.800465   -4.361416
 H   -0.886287   45.563765   -4.300820
 H    3.409115   43.797750   -3.497231
 H   -4.631621   46.247429   -7.705755
 H   -4.505154   44.526792   -8.088461
 H   -6.743714   44.671254  -10.886836
 H   -5.557330   43.691089  -10.017917
 H   -7.173352   43.936223   -9.331482
 H   -7.506203   46.135040   -1.146997
 H   -3.641128   45.733310    0.980848
 H    5.395056   44.930903   -2.830818
 H    5.402788   46.141621   -1.688993
