61 
3ezr_ligand_ani-2x.xyz
 C    1.502790   46.307148   -1.256212
 C   -9.555255   46.332617   -3.223121
 C   -9.373985   46.292683   -5.651895
 C    2.886173   46.303983   -1.206084
 C   -1.411872   45.599731   -0.912315
 C   -3.492637   45.762358   -2.195550
 C   -7.373089   46.080620   -4.342302
 C   -2.804415   45.711019   -0.976539
 C    3.607632   45.392643   -1.980762
 C   -6.025334   45.983181   -2.677982
 C   -6.419418   44.859118   -7.003563
 C   -7.818010   46.544116   -8.029389
 C   -6.730970   46.776738   -9.084032
 C    1.505924   42.717006   -4.388775
 C  -10.140442   46.379493   -4.478992
 C   -2.778266   45.686912   -3.405847
 C   -1.411325   45.552377   -3.343457
 C    2.910518   44.495907   -2.797819
 C   -0.709953   45.514406   -2.107351
 C    0.777929   45.440265   -2.073899
 C   -8.168385   46.188153   -3.184856
 C   -7.985132   46.139988   -5.622054
 C    1.519515   44.521011   -2.844418
 C   -4.866813   45.889893   -1.811305
 C   -5.354720   45.121875   -8.069867
 C   -6.530915   44.588372  -10.138065
 N   -6.041878   45.948354   -3.990325
 N   -4.997887   45.916712   -0.493513
 N   -7.272455   46.118131   -2.139780
 N   -3.752993   45.809256   -0.003955
 N   -7.205205   46.079556   -6.791359
 N    4.994014   45.333150   -1.895221
 N   -5.891706   45.612424   -9.332334
 O    0.802966   43.658141   -3.611742
 H    0.961757   47.032956   -0.654639
 H  -10.149233   46.406234   -2.316490
 H   -9.884486   46.333724   -6.608355
 H    3.413739   46.997645   -0.557438
 H   -0.899203   45.560551    0.044988
 H   -7.066868   44.012565   -7.302201
 H   -5.946361   44.596926   -6.053142
 H   -8.337842   47.487987   -7.833700
 H   -8.566209   45.824508   -8.415184
 H   -7.184928   47.095637  -10.029579
 H   -6.079951   47.589260   -8.736014
 H    2.163565   43.209524   -5.116303
 H    2.097836   42.037681   -3.761960
 H    0.746026   42.143508   -4.921278
 H  -11.218082   46.494375   -4.564270
 H   -3.308473   45.727923   -4.350593
 H   -0.837562   45.473015   -4.259560
 H    3.476310   43.782638   -3.388920
 H   -4.662608   45.882474   -7.685107
 H   -4.775726   44.210480   -8.262099
 H   -6.823380   45.020639  -11.101241
 H   -5.810508   43.787731  -10.337890
 H   -7.429242   44.128175   -9.689258
 H   -7.450482   46.161165   -1.144796
 H   -3.599709   45.802766    0.992022
 H    5.460858   44.933744   -2.697645
 H    5.441361   46.183835   -1.584669
