57 
3ezv_ligand_xtb.xyz
 C   -0.849405   30.414632   10.459895
 C   -1.724257   31.462327   10.103844
 C   -1.544243   32.131794    8.905732
 C   -0.500015   31.724538    8.085137
 C    0.366496   30.657644    8.426932
 C    0.183894   30.010732    9.651922
 N   -0.072610   32.181263    6.878828
 N    0.984471   31.503293    6.427882
 C    1.278018   30.580867    7.322136
 C    2.369767   29.658187    7.146606
 N    3.416959   29.836684    6.388048
 C    4.182235   28.714233    6.530705
 C    3.556880   27.823684    7.432789
 N    2.404094   28.458879    7.817922
 C    5.384548   28.362395    5.919240
 C    5.908668   27.128393    6.228229
 C    5.293921   26.259897    7.134138
 C    4.106062   26.584869    7.774084
 C   -2.812168   31.844092   11.012605
 N    3.415458   25.748481    8.664763
 C    3.236009   26.246982   10.015671
 C    2.089930   25.490073   10.678952
 N    2.416153   24.078096   10.722961
 C    2.622407   23.581653    9.374981
 C    3.761334   24.344911    8.700937
 C    1.416656   23.312607   11.433082
 C   -3.549841   30.878524   11.695834
 C   -4.575663   31.234341   12.544517
 C   -4.896918   32.577296   12.748346
 C   -4.156378   33.547552   12.071019
 C   -3.138711   33.183998   11.216042
 N   -5.963802   32.933439   13.543955
 H   -0.989624   29.935131   11.417388
 H   -2.202856   32.933284    8.608234
 H    0.849040   29.224892    9.979388
 H   -0.452746   32.932557    6.327078
 H    1.652221   28.052291    8.346620
 H    5.864856   29.033854    5.227530
 H    6.834533   26.813283    5.769050
 H    5.770450   25.314652    7.343095
 H    4.149825   26.086390   10.611838
 H    3.029382   27.317425    9.996453
 H    1.954493   25.849560   11.702107
 H    1.154037   25.670953   10.116202
 H    2.879317   22.521390    9.431296
 H    1.707872   23.688232    8.762931
 H    3.884633   23.982643    7.678794
 H    4.690642   24.165162    9.265354
 H    0.424422   23.358435   10.955762
 H    1.732048   22.271333   11.478362
 H    1.331614   23.695262   12.449290
 H   -3.330685   29.831973   11.541773
 H   -5.143777   30.471594   13.058342
 H   -4.388413   34.592031   12.224868
 H   -2.566403   33.952941   10.717812
 H   -6.279938   32.248234   14.210305
 H   -5.985891   33.885140   13.871393
