37 
3f07_ligand_xtb.xyz
 N  -26.944069   30.770794  -40.729529
 C  -23.375246   31.828821  -44.803471
 N  -29.438523   25.853435  -38.225755
 C  -23.285513   32.966407  -42.693758
 C  -22.959037   31.779815  -42.049286
 C  -22.836585   30.618414  -42.803329
 O  -30.625227   25.120326  -38.137335
 O  -30.545422   27.389459  -39.401032
 O  -22.759436   29.728243  -39.268759
 C  -23.045599   30.642158  -44.170139
 C  -23.490843   32.991989  -44.062309
 C  -22.730316   31.740639  -40.563993
 C  -23.394959   30.535345  -39.912448
 C  -24.835710   30.414593  -40.112133
 C  -25.700249   31.269971  -40.784150
 C  -28.103370   31.380506  -41.319337
 C  -26.933051   29.585506  -40.023319
 C  -25.628079   29.351197  -39.631784
 C  -28.116143   28.820059  -39.794871
 C  -28.186294   27.667887  -39.107728
 C  -29.472182   26.991486  -38.960773
 H  -23.538048   31.847836  -45.870843
 H  -28.625900   25.309564  -37.990878
 H  -23.375415   33.879633  -42.120896
 H  -22.575862   29.692712  -42.311150
 H  -31.262957   25.707928  -38.600507
 H  -22.949659   29.732090  -44.743788
 H  -23.741855   33.922673  -44.550452
 H  -23.118328   32.649013  -40.097558
 H  -21.658456   31.679501  -40.355276
 H  -25.493946   32.190016  -41.294610
 H  -28.846203   31.617222  -40.554787
 H  -27.806271   32.300804  -41.818927
 H  -28.557284   30.713037  -42.054449
 H  -25.261433   28.518883  -39.066938
 H  -29.044422   29.193242  -40.207982
 H  -27.320210   27.213592  -38.654221
