37 
3f07_ligand_aiqm1.xyz
 N  -26.977856   30.625247  -40.798626
 C  -23.313624   32.162013  -44.844152
 N  -29.429302   25.711361  -38.174894
 C  -23.321248   33.072842  -42.609330
 C  -22.899867   31.847134  -42.084958
 C  -22.677496   30.782421  -42.965232
 O  -30.667370   25.208596  -37.781215
 O  -30.579069   27.298417  -39.271247
 O  -22.748540   29.540949  -39.506595
 C  -22.882977   30.940787  -44.332817
 C  -23.527613   33.230738  -43.980614
 C  -22.715268   31.663514  -40.595732
 C  -23.396087   30.411580  -40.058397
 C  -24.848532   30.286094  -40.213370
 C  -25.724414   31.125166  -40.897821
 C  -28.165163   31.206375  -41.397476
 C  -26.950897   29.460411  -40.051344
 C  -25.635824   29.231131  -39.681865
 C  -28.157660   28.712401  -39.776948
 C  -28.209102   27.568335  -39.068940
 C  -29.497871   26.896557  -38.853296
 H  -23.476627   32.279876  -45.906437
 H  -28.755537   25.629885  -37.429456
 H  -23.487402   33.913171  -41.942892
 H  -22.344897   29.829535  -42.572823
 H  -31.272003   25.842379  -38.212896
 H  -22.709209   30.106834  -44.999745
 H  -23.854688   34.187516  -44.366414
 H  -23.118068   32.533498  -40.070757
 H  -21.658089   31.568764  -40.344013
 H  -25.542658   32.024006  -41.464588
 H  -28.883638   31.490251  -40.631751
 H  -27.868306   32.093718  -41.950840
 H  -28.630865   30.504637  -42.084872
 H  -25.243653   28.415144  -39.100341
 H  -29.096296   29.098691  -40.164365
 H  -27.314383   27.114822  -38.661441
