37 
3f07_ligand_ani-2x.xyz
 N  -27.046616   30.633106  -40.784489
 C  -23.237757   32.276915  -44.893907
 N  -29.443523   25.747453  -38.053720
 C  -23.210663   33.046535  -42.609868
 C  -22.844848   31.775690  -42.164359
 C  -22.664909   30.760856  -43.106002
 O  -30.649550   25.219031  -37.617821
 O  -30.636084   27.300388  -39.150337
 O  -22.845505   29.434970  -39.512238
 C  -22.862854   31.008564  -44.459916
 C  -23.407214   33.298841  -43.965544
 C  -22.646759   31.498068  -40.685414
 C  -23.428605   30.315229  -40.116706
 C  -24.898953   30.263977  -40.278366
 C  -25.777846   31.110642  -40.925826
 C  -28.222960   31.267923  -41.335413
 C  -27.010953   29.467737  -40.041815
 C  -25.688863   29.230855  -39.724192
 C  -28.224477   28.729324  -39.726929
 C  -28.254227   27.590216  -39.026156
 C  -29.537142   26.915959  -38.756344
 H  -23.392586   32.469524  -45.952296
 H  -28.734178   25.633750  -37.343414
 H  -23.349605   33.852149  -41.889685
 H  -22.363518   29.768370  -42.774083
 H  -31.290754   25.806034  -38.071843
 H  -22.722574   30.207120  -45.181316
 H  -23.696250   34.294445  -44.293000
 H  -22.917522   32.393908  -40.112367
 H  -21.597176   31.277122  -40.463763
 H  -25.610259   32.016334  -41.491932
 H  -28.921011   31.573011  -40.547975
 H  -27.904811   32.161272  -41.876244
 H  -28.742927   30.607698  -42.038282
 H  -25.277030   28.410940  -39.149442
 H  -29.175873   29.127556  -40.079918
 H  -27.345716   27.123287  -38.647578
