44 
3f0r_ligand_xtb.xyz
 O   49.067589    3.144494   85.365901
 O   50.421492    4.344981   87.222438
 O   51.426385    6.366083   94.975587
 N   48.797627    2.906583   86.717981
 N   47.238905   10.419705   92.458446
 C   49.599395    7.203554   93.758211
 C   48.428104    6.991374   93.026840
 C   47.653830    8.045186   92.603073
 C   48.006566    9.377558   92.884910
 C   49.180811    9.586798   93.630804
 C   49.944537    8.528218   94.052345
 C   50.488536    6.139439   94.238030
 C   50.191959    4.714187   93.753335
 C   50.272374    4.667811   92.260526
 C   49.494520    3.972782   91.414754
 C   49.769507    4.060601   89.998235
 C   49.112010    3.431533   89.012340
 C   49.506686    3.634193   87.619524
 C   51.210132    3.737292   94.351122
 C   48.347500    3.104370   91.843879
 C   47.522848   11.768363   92.883673
 C   46.148473   10.206458   91.538815
 H   49.833259    3.759710   85.419006
 H   47.897713    2.481262   86.862158
 H   48.103588    5.991117   92.789210
 H   46.750892    7.829249   92.055645
 H   49.505303   10.586396   93.868246
 H   50.847702    8.701346   94.618632
 H   49.192195    4.447040   94.109368
 H   51.092271    5.240069   91.844815
 H   50.589329    4.704055   89.704089
 H   48.283131    2.764539   89.192530
 H   50.980061    2.718920   94.047026
 H   52.211658    3.990444   94.013056
 H   51.192531    3.803437   95.435965
 H   47.418414    3.459836   91.398789
 H   48.513689    2.081958   91.507882
 H   48.232384    3.089609   92.922901
 H   46.687561   12.413568   92.621283
 H   47.652490   11.810573   93.967210
 H   48.426939   12.162320   92.406436
 H   45.816476   11.163227   91.142585
 H   46.467273    9.586366   90.697797
 H   45.296354    9.722397   92.028597
