44 
3f0r_ligand_ani-2x.xyz
 O   49.516937    1.988443   85.271858
 O   50.542356    3.724327   86.889899
 O   51.586868    6.444506   94.310924
 N   48.999644    2.131555   86.551075
 N   47.161226   10.847184   92.991800
 C   49.598702    7.461257   93.557686
 C   48.430917    7.384503   92.797620
 C   47.623271    8.493389   92.605782
 C   47.960283    9.740343   93.172800
 C   49.148436    9.812556   93.930480
 C   49.944926    8.696547   94.111304
 C   50.495094    6.291378   93.798974
 C   50.022605    4.891049   93.370424
 C   50.203725    4.711992   91.877799
 C   49.535939    3.831757   91.115008
 C   49.851581    3.762443   89.682819
 C   49.273507    2.956685   88.785561
 C   49.687250    2.983187   87.369702
 C   50.787353    3.809161   94.136439
 C   48.484898    2.894533   91.645889
 C   47.536257   12.110657   93.583970
 C   45.953488   10.741326   92.205473
 H   50.208634    2.683581   85.265997
 H   48.676655    1.240477   86.901079
 H   48.147870    6.443559   92.329749
 H   46.722500    8.384370   92.013446
 H   49.454461   10.749598   94.382047
 H   50.859126    8.770316   94.694292
 H   48.950929    4.819898   93.611661
 H   50.998833    5.291219   91.412043
 H   50.636611    4.429963   89.323277
 H   48.478548    2.263029   89.052430
 H   50.479159    2.814568   93.799671
 H   51.859896    3.918109   93.954188
 H   50.612841    3.887610   95.213467
 H   48.759530    1.852336   91.451916
 H   48.342466    3.002468   92.723795
 H   47.517005    3.072868   91.165452
 H   46.785680   12.866688   93.336890
 H   47.601878   12.040423   94.678173
 H   48.508279   12.460292   93.210290
 H   45.454386   11.713772   92.170554
 H   46.168133   10.431234   91.173700
 H   45.252318   10.013843   92.636597
