31 
3f33_ligand_aiqm1.xyz
 O   33.478903   -0.195469   33.823223
 C   33.883877   -0.014544   35.126731
 C   32.889397   -0.042468   36.110359
 C   35.235793    0.181344   35.440101
 C   33.286913    0.134126   37.434142
 C   31.420727   -0.277692   35.802594
 C   34.616182    0.344495   37.777336
 C   35.583864    0.367458   36.780191
 C   36.289872    0.147982   34.345757
 C   31.173431   -1.656048   35.182002
 C   30.813657    0.832608   34.939379
 C   36.587005   -1.295158   33.911210
 C   37.591669    0.848777   34.725270
 H   34.217598   -0.014449   33.235353
 H   32.531129    0.108650   38.210813
 H   30.898695   -0.257825   36.767727
 H   34.895561    0.486156   38.812636
 H   36.619010    0.531016   37.047700
 H   35.887346    0.688217   33.476731
 H   30.100316   -1.823760   35.060771
 H   31.646625   -1.717810   34.202935
 H   31.577460   -2.451264   35.812200
 H   31.260049    0.826905   33.945943
 H   29.737238    0.674977   34.834645
 H   30.975238    1.816017   35.386430
 H   37.253018   -1.306388   33.045791
 H   37.081481   -1.828526   34.726195
 H   35.678873   -1.844425   33.656827
 H   38.123427    0.295631   35.502258
 H   38.247924    0.902619   33.855350
 H   37.415422    1.863148   35.084800
