31 
3f33_ligand_ani-2x.xyz
 O   33.463891   -0.168057   33.850878
 C   33.877239   -0.021054   35.150170
 C   32.886922   -0.047837   36.136159
 C   35.237306    0.180173   35.459123
 C   33.281950    0.113708   37.463411
 C   31.420854   -0.261897   35.796963
 C   34.615096    0.304482   37.802727
 C   35.578626    0.338058   36.799875
 C   36.280973    0.173065   34.347637
 C   31.162475   -1.636884   35.169915
 C   30.850959    0.858168   34.920803
 C   36.584843   -1.256977   33.876041
 C   37.582912    0.880518   34.720175
 H   34.209280   -0.423117   33.295967
 H   32.521037    0.088831   38.241475
 H   30.882862   -0.234123   36.753831
 H   34.905984    0.431381   38.841598
 H   36.617393    0.502484   37.072036
 H   35.858458    0.731317   33.497044
 H   30.086384   -1.786693   35.023956
 H   31.662011   -1.721433   34.202147
 H   31.536871   -2.435752   35.818668
 H   31.342918    0.871757   33.946224
 H   29.775192    0.707833   34.772632
 H   30.999722    1.834770   35.394062
 H   37.234331   -1.240920   32.995245
 H   37.092642   -1.814981   34.670293
 H   35.679846   -1.819861   33.620308
 H   38.132281    0.331675   35.494172
 H   38.237628    0.948696   33.844751
 H   37.398813    1.896970   35.085116
