25 
3f35_ligand_aiqm1.xyz
 C   30.813771    0.333146   34.610538
 C   31.454377   -0.728332   35.508299
 C   32.912890   -0.451294   35.770386
 C   33.341082    0.115944   36.967923
 C   34.683216    0.407250   37.192948
 C   35.614070    0.135209   36.198355
 C   35.225650   -0.428359   34.981746
 C   36.247017   -0.680143   33.898445
 C   36.234110    0.390473   32.802299
 C   33.871460   -0.714395   34.788222
 O   33.411391   -1.268322   33.617106
 H   30.884243    1.321528   35.070298
 H   31.322349    0.369249   33.647324
 H   29.758732    0.111365   34.436293
 H   31.352395   -1.709094   35.039357
 H   30.922457   -0.769293   36.461834
 H   32.605606    0.328663   37.735578
 H   34.997952    0.844588   38.130588
 H   36.662094    0.361841   36.358877
 H   36.096259   -1.672530   33.454708
 H   37.238060   -0.711307   34.352050
 H   35.248309    0.481670   32.342631
 H   36.490395    1.364221   33.221631
 H   36.956163    0.155324   32.018675
 H   34.160551   -1.519901   33.071686
