22 
3f36_ligand_xtb.xyz
 C   36.757497   -0.866738   33.583698
 C   36.157211    0.388191   34.220360
 C   37.258100    1.365556   34.636642
 C   35.287459    0.026718   35.400217
 C   35.804226   -0.615168   36.515341
 C   35.007364   -0.946734   37.597091
 C   33.660575   -0.635212   37.576917
 C   33.121815    0.004823   36.476190
 C   33.923674    0.336638   35.391537
 O   33.398506    0.969156   34.300311
 H   37.418776   -1.377151   34.279880
 H   35.969418   -1.556611   33.290258
 H   37.330917   -0.599877   32.698596
 H   35.522510    0.880356   33.478667
 H   36.824193    2.254921   35.088145
 H   37.931266    0.908131   35.357818
 H   37.839281    1.667059   33.767876
 H   36.854856   -0.862411   36.540068
 H   35.436759   -1.446459   38.452339
 H   33.026597   -0.887756   38.413728
 H   32.067633    0.252233   36.452819
 H   32.455467    1.114335   34.440702
