19 
3f37_ligand_aiqm1.xyz
 C   31.463760    0.170645   34.387731
 C   32.667209    0.246363   35.281947
 C   32.555542    0.307213   36.667787
 C   33.681740    0.377117   37.483401
 C   34.944325    0.386422   36.903311
 C   35.100778    0.326867   35.518153
 C   36.473985    0.337319   34.894661
 C   33.950328    0.257424   34.727590
 O   34.019300    0.196103   33.357119
 H   31.485835   -0.734011   33.777919
 H   30.546979    0.171653   34.978172
 H   31.435746    1.015166   33.697241
 H   31.566585    0.299431   37.111674
 H   33.574843    0.423727   38.558030
 H   35.828687    0.440590   37.527639
 H   37.236271    0.394973   35.669871
 H   36.666346   -0.567954   34.310668
 H   36.615975    1.194349   34.229156
 H   34.940766    0.210004   33.087229
