13 
3f39_ligand_ani-2x.xyz
 C   34.519310    0.471479   35.638914
 C   35.666346   -0.292074   35.859878
 C   36.514735   -0.576271   34.798336
 C   36.233701   -0.107997   33.516320
 C   35.088592    0.652045   33.305799
 C   34.228456    0.945315   34.359746
 O   33.721611    0.720998   36.714966
 H   35.873033   -0.650442   36.864367
 H   37.407593   -1.171418   34.974689
 H   36.902911   -0.334860   32.691377
 H   34.856819    1.024198   32.310960
 H   33.332933    1.541446   34.188438
 H   32.968961    1.255880   36.433109
