55 
3f3t_ligand_aiqm1.xyz
 C   -5.204888   35.417192   -9.212339
 C   -4.299615   35.765146  -10.251309
 C   -4.597368   36.756252  -11.151670
 C   -5.821385   37.457290  -11.064479
 C   -6.723929   37.131026  -10.086298
 C   -6.445292   36.105896   -9.146504
 C   -7.391318   35.751067   -8.151520
 C   -7.108505   34.751184   -7.262132
 C   -5.867471   34.070394   -7.289611
 C   -4.930460   34.401083   -8.240751
 N   -3.656461   33.794864   -8.300475
 C   -3.233849   32.665571   -7.644855
 O   -3.920976   31.983990   -6.911311
 N   -1.901600   32.387383   -7.907579
 C   -1.255693   31.245636   -7.450697
 C   -1.691572   30.149507   -6.748543
 C   -0.543586   29.318713   -6.650769
 C   -0.396743   27.968824   -5.990629
 C   -1.714501   27.522323   -5.353241
 C    0.030996   26.943395   -7.051166
 C    0.689419   28.064023   -4.909089
 N    0.505003   29.863540   -7.259732
 N    0.065944   31.065817   -7.728740
 C    0.940020   31.915713   -8.442930
 C    0.934146   33.286516   -8.198025
 C    1.812789   31.358180   -9.377276
 C    2.660064   32.202376  -10.085389
 C    2.644027   33.578032   -9.874179
 C    1.782579   34.128867   -8.921620
 N    1.708249   35.514435   -8.731160
 H   -3.365142   35.228877  -10.374714
 H   -3.894198   36.998053  -11.937814
 H   -6.044920   38.240931  -11.776157
 H   -7.671957   37.651582  -10.018555
 H   -8.337037   36.277389   -8.114536
 H   -7.837322   34.474879   -6.510530
 H   -5.664884   33.289777   -6.573587
 H   -2.959667   34.312934   -8.802377
 H   -1.451334   32.873542   -8.665299
 H   -2.678464   29.982616   -6.360629
 H   -2.039935   28.229390   -4.587427
 H   -2.504903   27.437789   -6.102111
 H   -1.580798   26.544417   -4.883283
 H   -0.732173   26.848290   -7.826206
 H    0.967279   27.246429   -7.523646
 H    0.175584   25.964314   -6.586870
 H    1.637229   28.383648   -5.345351
 H    0.404642   28.783336   -4.138852
 H    0.832774   27.088685   -4.436026
 H    0.279726   33.704946   -7.441329
 H    1.829524   30.286529   -9.507487
 H    3.344380   31.786871  -10.812986
 H    3.301803   34.225090  -10.441367
 H    1.415653   35.779229   -7.802823
 H    2.548616   36.005023   -8.994323
