55 
3f3t_ligand_xtb.xyz
 C   -5.118191   35.532079   -9.033771
 C   -4.153596   36.075631   -9.910332
 C   -4.402238   37.209829  -10.633498
 C   -5.633517   37.868539  -10.522488
 C   -6.588275   37.377336   -9.679293
 C   -6.362365   36.212041   -8.916483
 C   -7.352109   35.721636   -8.040934
 C   -7.122140   34.596356   -7.302277
 C   -5.909945   33.907667   -7.409543
 C   -4.919492   34.350223   -8.256008
 N   -3.710542   33.663070   -8.387667
 C   -3.240997   32.601664   -7.647152
 O   -3.815717   32.073359   -6.726641
 N   -1.990551   32.212499   -8.080152
 C   -1.268351   31.155462   -7.546373
 C   -1.635921   30.114371   -6.729088
 C   -0.477451   29.313818   -6.625031
 C   -0.326730   28.047914   -5.833667
 C   -1.386610   27.040447   -6.294752
 C    1.069475   27.462355   -6.045664
 C   -0.534312   28.369899   -4.348731
 N    0.507610   29.825643   -7.333524
 N    0.039936   30.959561   -7.883840
 C    0.858645   31.747051   -8.701495
 C    0.803358   33.134420   -8.631990
 C    1.745495   31.122333   -9.572062
 C    2.546480   31.896672  -10.390972
 C    2.469996   33.275663  -10.358496
 C    1.602605   33.911497   -9.469150
 N    1.479552   35.287417   -9.461999
 H   -3.183558   35.610087  -10.026120
 H   -3.644844   37.603888  -11.295374
 H   -5.815762   38.761191  -11.102140
 H   -7.541199   37.876844   -9.578772
 H   -8.288850   36.253914   -7.966255
 H   -7.876419   34.219296   -6.628110
 H   -5.745268   33.021024   -6.821944
 H   -3.105080   34.011535   -9.115114
 H   -1.552245   32.679156   -8.862389
 H   -2.595011   29.969741   -6.281722
 H   -2.387154   27.434869   -6.137521
 H   -1.265109   26.821388   -7.353413
 H   -1.288351   26.112309   -5.735701
 H    1.224005   27.229887   -7.095517
 H    1.826738   28.180989   -5.746198
 H    1.189329   26.553321   -5.460261
 H    0.211968   29.085405   -4.010594
 H   -1.520174   28.797008   -4.183004
 H   -0.442469   27.464734   -3.752157
 H    0.178071   33.623159   -7.897902
 H    1.796561   30.046522   -9.581463
 H    3.237593   31.418602  -11.068543
 H    3.092232   33.873466  -11.008047
 H    1.112101   35.695617   -8.616825
 H    2.251292   35.798392   -9.860143
