49 
3f3u_ligand_aiqm1.xyz
 C   -4.717007   35.909962   -8.336908
 C   -5.882785   36.665917   -8.372798
 C   -7.036398   36.201273   -7.748934
 C   -7.002208   34.974972   -7.092564
 C   -5.842334   34.203632   -7.046750
 C   -4.686772   34.678405   -7.677046
 N   -3.462515   33.976656   -7.698002
 C   -3.159712   32.790726   -7.076218
 O   -3.937474   32.134361   -6.412857
 N   -1.839699   32.424978   -7.276738
 C   -1.300259   31.226395   -6.828726
 C   -1.853918   30.131554   -6.212832
 C   -0.770447   29.223411   -6.075274
 C   -0.756756   27.839209   -5.472468
 C   -2.142726   27.452721   -4.951085
 C   -0.317566   26.835242   -6.548772
 C    0.251394   27.815502   -4.314224
 N    0.351853   29.724125   -6.582152
 N    0.023969   30.971899   -7.022631
 C    1.001950   31.797070   -7.621941
 C    1.063880   33.150283   -7.299223
 C    1.907057   31.232165   -8.520279
 C    2.858151   32.053672   -9.114085
 C    2.913534   33.413996   -8.824613
 C    2.017890   33.970464   -7.907503
 N    2.018250   35.345699   -7.641096
 H   -3.820507   36.277938   -8.825654
 H   -5.881550   37.616083   -8.889894
 H   -7.946054   36.784438   -7.773366
 H   -7.894958   34.606188   -6.603566
 H   -5.831491   33.256252   -6.531981
 H   -2.712362   34.451749   -8.168958
 H   -1.300473   32.922449   -7.965312
 H   -2.874430   30.013725   -5.901450
 H   -2.478510   28.145638   -4.176901
 H   -2.880202   27.452562   -5.756642
 H   -2.104678   26.448689   -4.520373
 H   -1.026396   26.824653   -7.379222
 H    0.667909   27.096330   -6.939084
 H   -0.268888   25.829373   -6.123407
 H    1.246599   28.090958   -4.667082
 H   -0.043462   28.517588   -3.531997
 H    0.298728   26.813106   -3.879961
 H    0.379748   33.571385   -6.570641
 H    1.866111   30.170225   -8.710846
 H    3.568673   31.632153   -9.812511
 H    3.653019   34.044221   -9.303196
 H    1.675164   35.577963   -6.721331
 H    2.906260   35.790645   -7.813406
