68 
3f3w_ligand_xtb.xyz
 C   11.982864   37.024781    5.628474
 C   10.808529   37.453342    6.300712
 C    9.752304   36.476430    6.359121
 N    9.893889   35.290346    5.800135
 N   12.084407   35.793298    5.075212
 C   -1.634719   35.728701    8.012132
 C   -1.643748   34.327612    8.544968
 C   -0.731020   33.388536    8.087919
 C   -2.578573   33.948774    9.502241
 C   -2.613544   32.649215    9.976144
 C   -1.697906   31.716040    9.528928
 C   -0.739654   32.090065    8.592682
 N    0.180407   31.134221    8.151258
 N   -0.200693   29.852734    7.995784
 C    0.852498   29.193543    7.561274
 C    0.810332   27.728229    7.241836
 C   -0.572152   27.161963    7.566591
 C    1.109063   27.543963    5.748997
 C    1.875693   27.003810    8.073143
 C    1.968184   30.052203    7.450672
 C    1.502431   31.284009    7.840760
 N    2.150430   32.497179    8.020326
 C    3.428104   32.767656    7.570081
 O    4.078143   31.989062    6.916839
 N    3.835145   34.025473    7.947928
 C    5.052414   34.659758    7.675278
 C    5.235906   35.949381    8.170074
 C    6.412467   36.628192    7.935712
 C    6.076183   34.069191    6.940616
 C    7.254682   34.748426    6.705951
 C    7.440916   36.037632    7.199989
 N    8.596271   36.785463    7.002979
 C   10.760754   38.748419    6.834651
 C   11.842183   39.602147    6.725005
 N   11.825361   40.850121    7.311373
 C   13.007148   39.160239    6.063553
 C   13.075685   37.907503    5.528407
 C   11.049088   35.017840    5.188989
 H   -1.413629   36.436451    8.810849
 H   -0.892145   35.846403    7.226796
 H   -2.611879   35.984508    7.606122
 H   -0.041729   33.657721    7.299977
 H   -3.292296   34.675204    9.862003
 H   -3.357902   32.362307   10.703582
 H   -1.711399   30.696480    9.878063
 H   -0.790297   27.285471    8.623679
 H   -1.335409   27.689700    7.002204
 H   -0.613138   26.103683    7.318236
 H    0.359671   28.055381    5.148944
 H    2.085691   27.951394    5.500146
 H    1.097185   26.486909    5.491931
 H    2.867747   27.383720    7.843429
 H    1.689232   27.147100    9.135364
 H    1.855118   25.937379    7.859004
 H    2.962415   29.823628    7.134440
 H    1.654831   33.176589    8.579985
 H    3.196552   34.580876    8.499567
 H    4.451223   36.424339    8.743669
 H    6.535806   37.628467    8.328923
 H    5.942823   33.073372    6.554188
 H    8.045773   34.289140    6.138926
 H    8.569179   37.702346    7.424947
 H    9.878060   39.112828    7.344623
 H   10.922759   41.241299    7.525611
 H   12.502448   41.513984    6.973532
 H   13.846605   39.836868    5.987136
 H   13.957715   37.560309    5.014690
 H   11.115618   34.032146    4.745403
