62 
3f8c_ligand_aiqm1.xyz
 C   -2.795044   25.644377   35.500241
 O   -2.566139   26.237302   34.303306
 C   -1.793129   25.168365   36.351210
 C   -2.149804   24.574747   37.561045
 C   -3.484944   24.446749   37.938202
 C   -4.477698   24.930146   37.072637
 C   -4.140892   25.519996   35.872036
 C   -3.878558   23.828037   39.200670
 N   -2.965714   23.321434   40.099479
 C   -3.684079   22.819548   41.165384
 C   -5.028961   23.061766   40.835249
 N   -5.118857   23.689594   39.608922
 C   -6.041579   22.667828   41.718115
 C   -5.675100   22.049219   42.896060
 C   -4.320435   21.810053   43.222527
 C   -3.301327   22.196880   42.349931
 C   -4.013579   21.149629   44.491079
 N   -2.719420   20.914884   44.909584
 C   -2.796616   20.290781   46.135210
 C   -4.171372   20.175972   46.387608
 N   -4.906161   20.717439   45.349427
 C   -4.596690   19.564178   47.570932
 C   -3.638648   19.103436   48.453305
 C   -2.248821   19.236872   48.205417
 C   -1.813339   19.838387   47.022098
 N   -1.350541   18.708185   49.160525
 C    0.049492   18.675215   48.770601
 C    0.838917   17.853731   49.773812
 N    0.703753   18.407229   51.109688
 C   -1.492006   19.266700   50.505550
 C   -0.698025   18.431364   51.490346
 C    1.482409   17.641026   52.064358
 C   -1.212325   26.382148   33.890274
 C   -1.231430   27.062625   32.542364
 H   -0.748565   25.252381   36.088387
 H   -1.358004   24.212956   38.207257
 H   -5.510864   24.829025   37.369639
 H   -4.895839   25.896480   35.196146
 H   -1.969767   23.317451   39.989818
 H   -7.078965   22.846718   41.475413
 H   -6.420921   21.727166   43.606077
 H   -2.255908   22.019168   42.573546
 H   -1.886489   21.183795   44.421930
 H   -5.650844   19.448297   47.781445
 H   -3.949534   18.605460   49.361762
 H   -0.763460   19.947417   46.787606
 H    0.135796   18.209751   47.787438
 H    0.471608   19.690627   48.708890
 H    0.488817   16.806328   49.742203
 H    1.897013   17.862881   49.497474
 H   -1.135879   20.308071   50.528211
 H   -2.544155   19.271565   50.789456
 H   -1.115830   17.409706   51.527855
 H   -0.781019   18.868324   52.488716
 H    1.391363   18.088303   53.055122
 H    1.153352   16.590513   52.123011
 H    2.535029   17.658483   51.778190
 H   -0.666151   26.981993   34.624438
 H   -0.740360   25.397181   33.825424
 H   -0.210617   27.195345   32.184344
 H   -1.780538   26.460733   31.819375
 H   -1.706604   28.040044   32.615631
