62 
3f8c_ligand_dft.xyz
 C   -2.782011   25.780567   35.534831
 O   -2.556041   26.444174   34.378266
 C   -1.888040   24.885468   36.125127
 C   -2.231593   24.261020   37.321517
 C   -3.450109   24.515000   37.947743
 C   -4.342155   25.409900   37.338410
 C   -4.014775   26.033916   36.151630
 C   -3.837530   23.877855   39.209592
 N   -2.932545   23.246053   40.034616
 C   -3.632440   22.786847   41.130872
 C   -4.965279   23.166493   40.882753
 N   -5.059274   23.843952   39.683674
 C   -5.961156   22.826083   41.803983
 C   -5.592687   22.135450   42.942830
 C   -4.249889   21.771169   43.187331
 C   -3.248442   22.088769   42.270107
 C   -3.942708   21.046424   44.426105
 N   -2.669658   20.998289   44.959593
 C   -2.743567   20.264883   46.124484
 C   -4.091456   19.884786   46.215168
 N   -4.812395   20.383811   45.146006
 C   -4.502016   19.097191   47.296499
 C   -3.560865   18.731072   48.237437
 C   -2.205458   19.140567   48.152418
 C   -1.784440   19.922239   47.078073
 N   -1.316741   18.702014   49.162033
 C    0.104852   18.833719   48.898906
 C    0.898797   18.037663   49.926883
 N    0.594701   18.490058   51.274538
 C   -1.635301   19.145993   50.517720
 C   -0.829451   18.352070   51.534885
 C    1.388385   17.790095   52.263627
 C   -1.330028   26.229975   33.697964
 C   -1.344394   27.090987   32.451502
 H   -0.933955   24.658184   35.664701
 H   -1.531061   23.544172   37.742550
 H   -5.295536   25.600579   37.819475
 H   -4.697569   26.729368   35.675310
 H   -1.932864   23.234528   39.919104
 H   -6.993358   23.104445   41.620467
 H   -6.333045   21.852276   43.682714
 H   -2.219080   21.772712   42.415048
 H   -1.882435   21.545252   44.652611
 H   -5.533568   18.770265   47.375702
 H   -3.849802   18.081735   49.057918
 H   -0.759851   20.264802   46.988222
 H    0.316698   18.440581   47.899730
 H    0.436867   19.888030   48.934490
 H    0.672172   16.960766   49.798129
 H    1.969770   18.179150   49.741468
 H   -1.411602   20.220767   50.637996
 H   -2.701032   19.003990   50.707912
 H   -1.148324   17.291325   51.498684
 H   -1.042324   18.733005   52.540277
 H    1.165507   18.183147   53.261034
 H    1.200886   16.698804   52.273522
 H    2.453061   17.951144   52.064502
 H   -0.488941   26.502004   34.350900
 H   -1.229158   25.167238   33.437225
 H   -0.413418   26.957093   31.892374
 H   -2.182526   26.815051   31.805769
 H   -1.443802   28.147035   32.717042
