39 
3fcf_ligand_xtb.xyz
 O  -12.751731   -5.962307    0.706012
 C  -12.753591   -6.214413   -0.604739
 O  -12.480122   -7.305645   -1.031535
 C  -13.120528   -5.074795   -1.503178
 C  -13.786650   -5.357017   -2.692922
 C  -14.153133   -4.328213   -3.544157
 C  -12.789401   -3.762677   -1.193425
 C  -13.159019   -2.724094   -2.045368
 C  -13.851643   -3.018953   -3.221876
 C  -12.839881   -1.361188   -1.671219
 N  -13.253746   -0.381106   -2.360635
 O  -12.889664    0.875071   -1.878725
 C  -13.588695    1.883936   -2.562613
 C  -15.089309    1.834945   -2.232835
 O  -15.298735    2.013690   -0.840182
 N  -15.057283    0.871312   -0.163637
 C  -15.082184    0.940429    1.109406
 C  -14.846424   -0.242152    1.903700
 N  -14.518488   -1.346812    1.341791
 C  -14.973573   -0.091382    3.390904
 C  -15.278836   -1.409320    4.078313
 O  -15.794310   -1.497494    5.160424
 N  -14.869108   -2.507689    3.364462
 C  -14.358449   -2.499132    2.064912
 O  -13.857383   -3.497366    1.604755
 H  -13.086405   -5.075709    0.934232
 H  -14.012129   -6.385908   -2.928802
 H  -14.677514   -4.551348   -4.461436
 H  -12.235050   -3.533022   -0.295519
 H  -14.135148   -2.205872   -3.871266
 H  -12.252822   -1.215515   -0.765002
 H  -13.459902    1.786698   -3.646467
 H  -13.147666    2.819339   -2.212095
 H  -15.485603    0.862544   -2.540467
 H  -15.621922    2.650275   -2.722317
 H  -15.280436    1.873775    1.638829
 H  -15.731984    0.644772    3.664267
 H  -14.020426    0.267806    3.798089
 H  -14.956910   -3.413163    3.814120
