39 
3fcf_ligand_aiqm1.xyz
 O  -13.687857   -5.921686    0.657738
 C  -13.620150   -6.193685   -0.654714
 O  -13.699431   -7.338735   -1.021998
 C  -13.454174   -5.063965   -1.634332
 C  -13.452770   -5.409386   -2.988332
 C  -13.313216   -4.432437   -3.967337
 C  -13.302930   -3.723514   -1.273751
 C  -13.162785   -2.740688   -2.254992
 C  -13.171497   -3.097402   -3.608516
 C  -13.023668   -1.345646   -1.830470
 N  -13.162934   -0.382973   -2.664217
 O  -12.926059    0.839021   -1.998662
 C  -13.755592    1.836244   -2.563056
 C  -15.213559    1.672718   -2.168557
 O  -15.407259    1.838677   -0.749181
 N  -15.098615    0.672808   -0.100405
 C  -15.145329    0.833403    1.170318
 C  -14.828851   -0.290176    2.052068
 N  -14.374817   -1.391840    1.558202
 C  -15.061807   -0.021894    3.515178
 C  -14.726672   -1.168957    4.434474
 O  -14.858002   -1.116888    5.631112
 N  -14.254292   -2.287808    3.787325
 C  -14.058127   -2.453076    2.417485
 O  -13.617820   -3.507805    2.022220
 H  -13.621527   -4.985053    0.881479
 H  -13.563563   -6.454131   -3.245278
 H  -13.315803   -4.715150   -5.012826
 H  -13.305486   -3.404619   -0.241691
 H  -13.063399   -2.324815   -4.359598
 H  -12.822870   -1.132584   -0.777449
 H  -13.678134    1.823626   -3.652088
 H  -13.373933    2.783681   -2.177063
 H  -15.602196    0.699650   -2.468099
 H  -15.810461    2.465613   -2.617915
 H  -15.408534    1.796311    1.599762
 H  -16.103546    0.244166    3.685846
 H  -14.481100    0.841242    3.835971
 H  -14.017034   -3.079948    4.365148
