52 
3fdn_ligand_xtb.xyz
 C   -4.512558  -34.147939   -0.471822
 C   -4.661193  -33.453382    0.870000
 O   -4.548421  -34.034186    1.926746
 N   -4.939194  -32.129169    0.727534
 C   -5.102324  -31.141395    1.708461
 C   -4.887846  -31.390711    3.053065
 C   -5.473298  -29.862890    1.294350
 C   -5.629627  -28.859130    2.231278
 C   -5.399059  -29.092286    3.574897
 C   -5.010063  -30.363396    3.989688
 N   -4.707221  -30.689783    5.305380
 C   -4.836250  -29.926504    6.430392
 O   -5.280205  -28.792359    6.436115
 C   -4.444160  -30.608969    7.674902
 C   -4.757817  -30.082635    8.966233
 C   -5.442908  -28.807340    9.278691
 N   -4.365531  -30.895940    9.919437
 N   -3.786262  -31.938886    9.303452
 C   -3.806957  -31.822423    7.952667
 N   -3.245079  -32.833159    7.213066
 N   -2.914426  -32.712712    5.923666
 C   -2.306869  -33.661993    5.322420
 C   -1.945461  -33.567461    3.929284
 C   -1.954962  -32.344540    3.248461
 C   -1.655506  -32.289435    1.909260
 C   -1.331178  -33.451934    1.204734
 O   -1.082433  -33.291596   -0.125475
 C   -0.666304  -34.410736   -0.871440
 C   -1.282788  -34.666140    1.881392
 C   -1.586824  -34.715773    3.226701
 H   -3.693964  -33.698512   -1.030216
 H   -4.304194  -35.200975   -0.306055
 H   -5.428656  -34.053648   -1.051296
 H   -5.035252  -31.787108   -0.218796
 H   -4.615836  -32.382090    3.372501
 H   -5.639668  -29.661861    0.245149
 H   -5.926300  -27.872359    1.908132
 H   -5.510893  -28.304730    4.300107
 H   -4.238357  -31.588067    5.408767
 H   -5.579193  -28.725793   10.353307
 H   -4.852772  -27.969969    8.912793
 H   -6.405043  -28.766072    8.773018
 H   -3.410596  -32.695763    9.851864
 H   -2.924085  -33.654395    7.729074
 H   -2.055319  -34.592090    5.846046
 H   -2.194998  -31.442974    3.788302
 H   -1.673467  -31.352599    1.374573
 H   -0.505699  -34.046937   -1.885435
 H    0.270458  -34.824024   -0.484847
 H   -1.430164  -35.194705   -0.884597
 H   -1.026406  -35.579692    1.368682
 H   -1.567871  -35.668834    3.735391
