42 
3fhr_ligand_xtb.xyz
 C  238.768429   82.642943  184.515272
 C  240.170957   82.586000  184.631263
 C  240.832811   81.936422  185.692557
 C  242.198645   81.918337  185.747521
 C  242.960348   82.547358  184.749445
 C  242.349668   83.188501  183.707227
 C  240.943705   83.224756  183.622540
 N  240.368370   83.873102  182.587495
 C  239.073192   83.906559  182.511459
 C  238.199106   83.295830  183.447227
 C  236.749497   83.399105  183.242956
 C  235.876178   82.412580  183.693429
 N  236.325957   84.477522  182.585512
 C  235.028994   84.617144  182.384629
 C  234.080156   83.704112  182.804493
 C  234.503733   82.551087  183.475504
 C  233.547826   81.559779  183.915379
 C  232.172242   81.637556  184.005662
 C  231.714505   80.398800  184.495684
 C  230.365715   79.933350  184.828579
 O  229.370672   80.626411  184.892224
 N  230.330635   78.600590  185.138987
 C  231.380407   77.655827  184.821657
 C  232.755009   78.209790  185.215776
 C  232.823999   79.596929  184.687385
 N  233.919972   80.305054  184.347620
 H  238.162040   82.191524  185.289865
 H  240.241332   81.453799  186.458539
 H  242.703043   81.419258  186.562040
 H  244.038175   82.520312  184.814705
 H  242.915693   83.679104  182.931157
 H  238.645816   84.438941  181.672752
 H  236.274854   81.548222  184.203321
 H  234.738602   85.513932  181.852561
 H  233.034651   83.868469  182.604878
 H  231.550415   82.475515  183.767529
 H  234.866094   79.961244  184.368375
 H  229.408589   78.226860  185.309159
 H  231.382665   77.438349  183.742218
 H  231.180199   76.725474  185.356965
 H  232.852321   78.223057  186.306647
 H  233.545780   77.576496  184.809804
