28 
3fl5_ligand_ani-2x.xyz
 O   21.579479    9.347577   18.650575
 C   22.209687    8.317487   18.554329
 C   22.393374    7.359387   19.695292
 C   21.719106    7.567253   20.911208
 O   20.867295    8.607011   21.047759
 C   21.934777    6.687830   21.968581
 C   22.794451    5.609868   21.844474
 C   23.464073    5.367324   20.648525
 O   24.275408    4.307779   20.605711
 C   23.251266    6.239786   19.554318
 C   23.952202    5.943198   18.262687
 O   24.734081    5.005869   18.188445
 C   22.855042    7.962669   17.241940
 C   23.672206    6.824887   17.092747
 C   22.617785    8.813116   16.167536
 C   23.166293    8.544165   14.926736
 C   23.955750    7.416239   14.759958
 O   24.536509    7.057625   13.570767
 C   24.216501    6.545395   15.826490
 O   24.977335    5.460419   15.604281
 H   20.495266    8.573826   21.937960
 H   21.417834    6.851101   22.913890
 H   22.962393    4.930044   22.673288
 H   24.671376    4.283528   19.706132
 H   21.995791    9.686090   16.322607
 H   22.979907    9.207953   14.084734
 H   24.313698    7.705735   12.892206
 H   25.232114    5.470038   14.668625
