28 
3fl5_ligand_xtb.xyz
 O   21.439244    9.304083   18.680225
 C   22.131559    8.311998   18.557560
 C   22.385553    7.363904   19.656647
 C   21.771369    7.574929   20.899067
 O   20.955573    8.627383   21.077387
 C   22.011548    6.678824   21.948999
 C   22.842464    5.602939   21.784725
 C   23.474647    5.370239   20.554483
 O   24.273390    4.308709   20.468758
 C   23.239791    6.253084   19.480653
 C   23.906320    5.984709   18.201457
 O   24.681184    5.035925   18.073849
 C   22.764100    7.995671   17.255238
 C   23.608759    6.889348   17.082942
 C   22.479067    8.832511   16.183977
 C   23.046912    8.614490   14.944702
 C   23.900168    7.539852   14.760032
 O   24.471803    7.348016   13.532506
 C   24.157228    6.644754   15.814849
 O   24.942475    5.562492   15.599218
 H   20.608574    8.637851   21.979105
 H   21.529898    6.848833   22.903183
 H   23.034124    4.911802   22.589984
 H   24.648850    4.290093   19.547200
 H   21.815731    9.666746   16.351681
 H   22.853048    9.268740   14.110044
 H   25.324305    6.900985   13.621826
 H   24.943316    5.324289   14.661502
