17 
3fqa_ligand_dft.xyz
 C   -1.990601   -0.403005   -0.038056
 O   -2.295868   -1.514569   -0.384601
 O   -2.939338    0.461951    0.383337
 C   -0.579110    0.106370   -0.035285
 C    0.435748   -0.841137    0.055361
 C    1.778399   -0.450200    0.064269
 C    2.079017    0.916706   -0.035631
 C    1.063660    1.855635   -0.147936
 C   -0.271898    1.464983   -0.145933
 N    2.788521   -1.389975    0.220594
 H   -2.521736    1.242650    0.770734
 H    0.162966   -1.890273    0.121120
 H    3.117301    1.238436   -0.028254
 H    1.318546    2.906421   -0.246576
 H   -1.048117    2.212721   -0.284840
 H    2.545733   -2.335798   -0.037107
 H    3.696023   -1.119494   -0.129858
