49 
3fr5_ligand_aiqm1.xyz
 O   17.036801    4.522613    2.562453
 C   17.526067    5.605935    2.745069
 O   16.859590    6.713664    2.346139
 C   18.821742    5.869292    3.447022
 C   20.022989    5.152262    3.250749
 C   21.167297    5.439975    4.041501
 C   22.226079    4.579147    3.596674
 C   23.634745    4.538052    4.116277
 C   24.703271    4.754783    3.040307
 C   24.880902    3.586928    2.069377
 C   23.721108    3.345601    1.101301
 C   22.442817    2.804830    1.753381
 C   21.716227    3.827118    2.574825
 C   21.122731    6.423301    5.034860
 C   19.948825    7.131542    5.220518
 C   18.825174    6.860584    4.429266
 N   20.376368    4.157197    2.364728
 C   19.603947    3.647587    1.244681
 C   19.934047    4.309058   -0.082597
 C   19.569759    3.667915   -1.266814
 C   19.842721    4.239396   -2.507784
 C   19.426572    3.474924   -3.727737
 N   20.015622    3.858963   -4.904084
 O   18.605838    2.578463   -3.683146
 C   20.475137    5.481828   -2.575477
 C   20.844315    6.130094   -1.402790
 C   20.586355    5.546224   -0.162243
 H   17.408628    7.486244    2.513038
 H   23.816566    3.575258    4.607072
 H   23.750904    5.297708    4.892568
 H   25.659231    4.928587    3.541421
 H   24.481173    5.665859    2.476860
 H   25.058513    2.670592    2.644730
 H   25.787366    3.759719    1.482625
 H   24.046330    2.613405    0.358184
 H   23.496993    4.266051    0.553621
 H   22.704007    1.960575    2.399319
 H   21.790081    2.409849    0.975547
 H   21.990944    6.628175    5.648729
 H   19.885019    7.895145    5.983817
 H   17.910845    7.412721    4.622207
 H   18.547795    3.751954    1.466605
 H   19.787498    2.574941    1.172235
 H   19.059411    2.713321   -1.245423
 H   19.841264    3.250526   -5.685326
 H   20.897713    4.336877   -4.890538
 H   20.645573    5.955617   -3.534365
 H   21.331453    7.095917   -1.454535
 H   20.894846    6.052480    0.745547
