74 
3frz_ligand_ani-2x.xyz
 O   43.923296   15.830325   54.293965
 C   42.840735   15.453310   53.912457
 C   42.643373   14.390661   52.906227
 C   41.389436   14.118784   52.471956
 O   41.094601   13.368037   51.404856
 C   43.885435   13.660138   52.445963
 C   44.306496   13.932541   51.026322
 N   45.528372   14.335031   50.738290
 N   43.495097   13.732545   49.965015
 C   44.265860   14.039282   48.905200
 N   45.500878   14.410430   49.382644
 C   46.524364   14.786950   48.562767
 C   46.247310   14.773745   47.226299
 C   47.816263   15.166424   49.202000
 N   43.980498   14.020877   47.596193
 C   44.951770   14.380827   46.776650
 C   44.644216   14.364619   45.306342
 O   41.715313   16.042902   54.389376
 C   40.512278   15.244181   54.542147
 C   40.173076   14.619816   53.177729
 C   39.443717   16.244686   55.009936
 C   37.998068   15.730518   55.076844
 C   39.309105   17.516736   54.166627
 C   38.044469   18.176191   54.732657
 C   37.116490   17.002574   55.130241
 C   40.756640   14.137213   55.593598
 C   41.273760   14.640871   56.949789
 C   41.940738   13.551901   57.753293
 C   43.287246   13.245989   57.563691
 C   41.238367   12.779997   58.676061
 C   41.890434   11.748087   59.351797
 C   41.145743   10.865361   60.324260
 C   41.802626   10.799170   61.702510
 N   43.183707   11.472575   59.168604
 C   43.871736   12.212493   58.294897
 C   45.337453   11.883039   58.149452
 C   45.587485   10.423443   57.771255
 H   44.718151   13.930970   53.100028
 H   43.735858   12.572725   52.528928
 H   47.010211   15.061115   46.509218
 H   48.543051   15.458185   48.440255
 H   47.674524   15.999381   49.898202
 H   48.223322   14.331014   49.780933
 H   43.806710   15.035005   45.090977
 H   45.507672   14.677452   44.715577
 H   44.349424   13.357653   44.995942
 H   39.676601   15.352970   52.525304
 H   39.457834   13.794699   53.288652
 H   39.738985   16.574517   56.016575
 H   37.758573   15.166255   54.168061
 H   37.823847   15.058027   55.925114
 H   40.198404   18.150322   54.216961
 H   39.139372   17.261877   53.113507
 H   38.301241   18.768169   55.618609
 H   37.576992   18.862442   54.019253
 H   36.698807   17.162480   56.129668
 H   36.268516   16.907286   54.444134
 H   39.827964   13.570020   55.734263
 H   41.481795   13.429988   55.174473
 H   41.990267   15.451476   56.779082
 H   40.448347   15.072758   57.529423
 H   43.888946   13.808874   56.853146
 H   40.187472   12.968291   58.880138
 H   40.111688   11.222396   60.407302
 H   41.096603    9.856520   59.893415
 H   41.257308   10.108114   62.353616
 H   42.837728   10.453917   61.614431
 H   41.814514   11.782627   62.184611
 H   45.783560   12.554493   57.405131
 H   45.828494   12.102652   59.106552
 H   45.153122   10.187121   56.793934
 H   46.661992   10.218481   57.724549
 H   45.135901    9.755755   58.512020
 H   41.848758   13.346702   50.774104
