29 
3fts_ligand_aiqm1.xyz
 C  -22.200721    2.662677   -4.484884
 C  -22.185074    1.712355   -5.498275
 C  -23.036901    0.621151   -5.388625
 C  -23.895702    0.470245   -4.301153
 C  -23.907877    1.437215   -3.288172
 C  -23.047454    2.534136   -3.385877
 C  -24.784523    1.348841   -2.118521
 C  -25.812855    0.492468   -1.961491
 C  -26.697398    0.403067   -0.797356
 C  -26.479499    1.098199    0.402770
 C  -27.354067    0.975896    1.473541
 C  -28.471501    0.151872    1.367406
 C  -28.706839   -0.551646    0.190035
 C  -27.822120   -0.422576   -0.874448
 O  -29.297104    0.072234    2.450936
 O  -22.984187   -0.291637   -6.403697
 O  -21.346266    3.717889   -4.627280
 H  -21.524496    1.817428   -6.347670
 H  -24.535349   -0.400408   -4.242491
 H  -23.044855    3.288311   -2.607043
 H  -24.568316    2.071142   -1.336468
 H  -26.055567   -0.200775   -2.764239
 H  -25.613478    1.736825    0.516707
 H  -27.183147    1.510921    2.398151
 H  -29.572935   -1.197335    0.100349
 H  -28.016701   -0.974663   -1.785696
 H  -30.020784   -0.524302    2.248449
 H  -23.606644   -0.998448   -6.218065
 H  -21.448440    4.302718   -3.873094
