31 
3ftu_ligand_ani-2x.xyz
 C   22.335351   -2.802472   -4.473979
 C   21.941695   -1.691740   -5.212185
 C   22.494053   -0.457776   -4.903078
 C   25.474781   -0.014778   -1.753805
 C   24.814745   -1.375232   -1.995039
 C   23.428087   -0.318942   -3.872401
 C   23.815842   -1.434522   -3.134420
 C   23.265808   -2.678247   -3.442826
 O   22.086355    0.606580   -5.647692
 O   21.773062   -3.996165   -4.807577
 C   26.476028   -0.051413   -0.625929
 C   26.041761   -0.108416    0.701902
 C   26.939215   -0.162700    1.758206
 C   28.310719   -0.172910    1.499722
 O   29.150061   -0.229095    2.571765
 C   28.765665   -0.128204    0.183975
 C   27.848658   -0.068149   -0.862781
 H   21.218043   -1.789294   -6.013783
 H   24.697416    0.725090   -1.519658
 H   25.969107    0.317499   -2.675271
 H   24.316753   -1.697153   -1.069605
 H   25.597971   -2.122622   -2.174367
 H   23.841121    0.666415   -3.665433
 H   23.565177   -3.559824   -2.875936
 H   22.542834    1.396492   -5.331698
 H   22.127521   -4.681489   -4.226891
 H   24.972344   -0.111919    0.910430
 H   26.598940   -0.201649    2.788814
 H   30.063219   -0.231280    2.258057
 H   29.834540   -0.137063   -0.026911
 H   28.218326   -0.030023   -1.885404
