31 
3ftu_ligand_xtb.xyz
 C   23.035026   -2.508615   -4.958611
 C   22.056453   -1.557848   -5.209623
 C   21.872658   -0.513972   -4.314457
 C   25.772355   -0.403082   -2.050747
 C   24.526578   -1.245648   -1.716542
 C   22.664358   -0.422418   -3.175916
 C   23.641633   -1.373012   -2.921500
 C   23.825104   -2.414131   -3.819167
 O   20.903470    0.399800   -4.589769
 O   23.187607   -3.519879   -5.855625
 C   26.654477   -0.268852   -0.844187
 C   26.458394    0.761170    0.068554
 C   27.236977    0.869290    1.202730
 C   28.237138   -0.065569    1.449266
 O   28.987602    0.072027    2.577429
 C   28.440815   -1.100769    0.546031
 C   27.652952   -1.197305   -0.586340
 H   21.442971   -1.630765   -6.091069
 H   25.450371    0.581975   -2.393622
 H   26.316491   -0.884788   -2.865332
 H   23.985357   -0.765669   -0.899179
 H   24.848248   -2.232205   -1.377756
 H   22.513799    0.393327   -2.480929
 H   24.585059   -3.160794   -3.628937
 H   20.877574    1.065774   -3.892204
 H   23.893132   -4.109347   -5.563223
 H   25.686084    1.494222   -0.114716
 H   27.089395    1.669643    1.910213
 H   29.640882   -0.636289    2.622573
 H   29.218735   -1.830676    0.730775
 H   27.823505   -2.006595   -1.281922
