26 
3ftv_ligand_aiqm1.xyz
 N  -24.022361   -1.286531    4.864440
 C  -27.504371   -0.648656    1.012408
 C  -28.827267   -0.957468    0.694682
 C  -26.578428   -0.401260   -0.011393
 C  -27.011176   -0.473978   -1.342952
 C  -29.250997   -1.027376   -0.626945
 C  -28.329431   -0.785798   -1.643323
 C  -24.286294   -0.403673    3.897443
 C  -24.554496   -2.096701    2.237140
 C  -24.283949   -3.030244    3.233056
 C  -24.024470   -2.579535    4.522878
 C  -24.838456    0.358512    1.565183
 C  -24.556042   -0.741127    2.568866
 N  -25.237147   -0.134010    0.261943
 H  -27.190126   -0.612506    2.046953
 H  -29.527590   -1.146015    1.498120
 H  -26.303602   -0.287450   -2.143926
 H  -30.277617   -1.267482   -0.862656
 H  -28.635432   -0.836496   -2.680311
 H  -24.281237    0.640322    4.199240
 H  -24.770246   -2.393317    1.220210
 H  -24.276303   -4.091149    3.019018
 H  -23.811084   -3.280364    5.320863
 H  -23.932654    0.950496    1.436742
 H  -25.594441    1.028760    1.990721
 H  -24.729180    0.268347   -0.506298
