26 
3ftv_ligand_ani-2x.xyz
 N  -23.243568   -1.355913    4.553558
 C  -27.690112   -0.581084    0.945973
 C  -28.937412   -0.993447    0.486857
 C  -26.662423   -0.291174    0.035524
 C  -26.916312   -0.453077   -1.334582
 C  -29.186875   -1.136824   -0.873698
 C  -28.164196   -0.865557   -1.778741
 C  -23.713020   -0.440321    3.707428
 C  -25.000558   -2.021617    2.490177
 C  -24.521588   -2.994469    3.360784
 C  -23.649414   -2.613561    4.373516
 C  -25.075533    0.459176    1.805631
 C  -24.594831   -0.701257    2.658776
 N  -25.415957    0.165558    0.438461
 H  -27.506316   -0.520976    2.016352
 H  -29.723034   -1.206854    1.208142
 H  -26.121487   -0.238934   -2.046792
 H  -30.163109   -1.458934   -1.224178
 H  -28.337785   -0.977263   -2.846230
 H  -23.363922    0.579624    3.872691
 H  -25.684700   -2.294548    1.690795
 H  -24.824011   -4.031747    3.252336
 H  -23.255986   -3.348994    5.073598
 H  -24.289467    1.224135    1.799406
 H  -25.945956    0.934902    2.275768
 H  -24.646830   -0.071544   -0.169450
