26 
3ftv_ligand_dft.xyz
 N    3.595236    0.661163   -0.779874
 C   -1.368863    0.629604   -0.592752
 C   -2.372799    1.592941   -0.644411
 C   -1.614045   -0.608365    0.014891
 C   -2.882586   -0.847982    0.565238
 C   -3.629046    1.351062   -0.101248
 C   -3.873996    0.119996    0.505087
 C    2.588362   -0.141291   -1.126132
 C    1.721912   -0.234912    1.090975
 C    2.761387    0.605185    1.470823
 C    3.671278    1.020582    0.503372
 C    0.543055   -1.571148   -0.729646
 C    1.627558   -0.629535   -0.240209
 N   -0.630940   -1.594366    0.116526
 H   -0.394147    0.852985   -1.012530
 H   -2.160555    2.546764   -1.119067
 H   -3.084772   -1.803377    1.044785
 H   -4.405750    2.107547   -0.146953
 H   -4.848741   -0.091184    0.935704
 H    2.539798   -0.412004   -2.181370
 H    0.977205   -0.576661    1.803488
 H    2.864696    0.938154    2.498527
 H    4.497097    1.677810    0.767159
 H    0.947903   -2.589225   -0.746888
 H    0.288177   -1.317579   -1.771489
 H   -1.004302   -2.517637    0.276144
