26 
3ftw_ligand_ani-2x.xyz
 N   15.975972   -1.316439    4.470250
 C   11.464755   -0.468461    0.959333
 C   10.206715   -0.867646    0.518280
 C   12.476845   -0.171823    0.033669
 C   12.196351   -0.313631   -1.333463
 C    9.930940   -0.991101   -0.839156
 C   10.937987   -0.713165   -1.759553
 C   15.495340   -0.386838    3.645962
 C   14.174909   -1.944253    2.433164
 C   14.665182   -2.931492    3.280981
 C   15.559286   -2.569236    4.281355
 C   14.101098    0.545799    1.783437
 C   14.591620   -0.628606    2.611476
 N   13.733268    0.272396    0.419181
 H   11.668941   -0.423929    2.026764
 H    9.433537   -1.086530    1.251278
 H   12.978875   -0.094210   -2.057587
 H    8.946462   -1.303036   -1.175500
 H   10.743758   -0.809382   -2.824993
 H   15.853689    0.628784    3.817936
 H   13.473700   -2.202444    1.643725
 H   14.354697   -3.965513    3.164511
 H   15.962157   -3.316299    4.963528
 H   14.891096    1.306645    1.772521
 H   13.242380    1.019665    2.276433
 H   14.489441    0.039744   -0.206433
