27 
3ftz_ligand_ani-2x.xyz
 N   24.743360    2.173952    1.117204
 C   24.127974    1.787360    2.309261
 C   22.991779    2.429256    2.807886
 C   24.625780    0.672705    3.007461
 C   24.021936    0.233087    4.176238
 C   22.892553    0.888239    4.662961
 C   22.380911    1.983833    3.975885
 O   25.760723    0.049264    2.541969
 C   25.637772   -0.638429    1.291358
 C   26.750535   -0.201782    0.379143
 C   27.997285    0.138436    0.894083
 C   29.005889    0.521652    0.019023
 C   28.723616    0.559270   -1.343769
 N   27.534258    0.246177   -1.856776
 C   26.578851   -0.121765   -1.000952
 H   24.503740    3.106444    0.811904
 H   25.744715    2.020227    1.095064
 H   22.588325    3.283689    2.266834
 H   24.446613   -0.623962    4.693282
 H   22.419061    0.539526    5.576343
 H   21.499641    2.500347    4.347276
 H   24.668878   -0.432478    0.825856
 H   25.696700   -1.714643    1.504207
 H   28.157045    0.108181    1.969256
 H   29.992106    0.791131    0.387845
 H   29.489600    0.856275   -2.058757
 H   25.612152   -0.367094   -1.443088
