17 
3fuh_ligand_xtb.xyz
 O   27.099638   86.602843    0.244836
 C   26.250924   86.735687   -0.820575
 C   26.336370   87.848092   -1.670048
 C   25.488396   87.994717   -2.746910
 C   24.543708   87.002904   -2.964700
 N   23.586746   86.876931   -3.933081
 C   25.311827   85.744525   -1.032602
 C   24.445166   85.873478   -2.115403
 C   23.384791   85.074711   -2.627555
 C   22.895348   85.716868   -3.723120
 H   27.698323   87.357885    0.274444
 H   27.085578   88.603472   -1.470915
 H   25.561225   88.854860   -3.396071
 H   25.265701   84.898991   -0.365890
 H   23.039023   84.144017   -2.224860
 H   22.095275   85.431977   -4.379882
 H   23.417960   87.532041   -4.676668
