17 
3fuh_ligand_aiqm1.xyz
 O   27.102677   86.597277    0.256580
 C   26.255914   86.740575   -0.816471
 C   26.345723   87.858506   -1.666684
 C   25.494333   88.003246   -2.747804
 C   24.545959   87.004091   -2.964847
 N   23.583091   86.874106   -3.942784
 C   25.319297   85.746862   -1.025334
 C   24.446845   85.876864   -2.117813
 C   23.381083   85.064537   -2.626769
 C   22.885735   85.706847   -3.729437
 H   27.694338   87.352002    0.277861
 H   27.094681   88.617785   -1.470887
 H   25.571690   88.866970   -3.395620
 H   25.278022   84.900257   -0.353033
 H   23.022730   84.128235   -2.235011
 H   22.083551   85.425824   -4.392763
 H   23.400333   87.530017   -4.678185
