17 
3fuh_ligand_dft.xyz
 O   27.101114   86.595301    0.255450
 C   26.260509   86.741858   -0.813698
 C   26.347570   87.860589   -1.667006
 C   25.493587   88.002365   -2.747847
 C   24.545975   87.003086   -2.963418
 N   23.580651   86.873626   -3.940739
 C   25.319552   85.749561   -1.027870
 C   24.445255   85.874368   -2.116547
 C   23.376440   85.065107   -2.630140
 C   22.883808   85.707028   -3.729839
 H   27.700547   87.349223    0.287875
 H   27.097654   88.624588   -1.473592
 H   25.567566   88.867326   -3.400491
 H   25.276222   84.899860   -0.354649
 H   23.022639   84.125944   -2.229957
 H   22.079261   85.424393   -4.393999
 H   23.407649   87.529777   -4.682534
