17 
3fuh_ligand_ani-2x.xyz
 O   27.095375   86.586911    0.254115
 C   26.261645   86.744168   -0.814405
 C   26.347125   87.863048   -1.667846
 C   25.493345   88.005898   -2.748130
 C   24.544434   87.004114   -2.964367
 N   23.579199   86.874890   -3.939177
 C   25.319921   85.749910   -1.028857
 C   24.447885   85.878333   -2.117645
 C   23.376604   85.066169   -2.632241
 C   22.881535   85.704124   -3.730098
 H   27.697983   87.339024    0.292248
 H   27.098641   88.627685   -1.472826
 H   25.563928   88.870889   -3.402961
 H   25.282194   84.900911   -0.351345
 H   23.030214   84.126303   -2.224019
 H   22.076297   85.422590   -4.396259
 H   23.409674   87.529034   -4.685186
