31 
3fuj_ligand_aiqm1.xyz
 C  -31.896082   -1.244814   -0.350159
 C  -32.798853   -2.208654    0.046934
 C  -32.691787   -3.289462   -0.867990
 C  -31.725668   -2.947182   -1.788769
 N  -31.248328   -1.700658   -1.469442
 C  -30.207610   -1.001254   -2.185467
 C  -28.845079   -1.106378   -1.531525
 O  -28.886946   -0.338600   -0.343597
 C  -27.765842   -0.351243    0.444157
 C  -27.901147    0.354768    1.658414
 C  -26.582360   -0.986458    0.106688
 C  -25.506398   -0.905974    1.015916
 C  -24.172447   -1.425651    1.000461
 C  -23.577048   -1.022884    2.166031
 N  -24.465025   -0.278679    2.907644
 C  -25.657723   -0.194276    2.223333
 C  -26.857877    0.442484    2.555719
 H  -31.634920   -0.290342    0.073308
 H  -33.454883   -2.139206    0.899435
 H  -33.251828   -4.210362   -0.859272
 H  -31.343880   -3.473875   -2.648701
 H  -30.146372   -1.432636   -3.185490
 H  -30.481861    0.050414   -2.280603
 H  -28.608984   -2.150110   -1.305709
 H  -28.085464   -0.710880   -2.215327
 H  -28.853566    0.823114    1.865016
 H  -26.470899   -1.534793   -0.817984
 H  -23.707951   -2.020548    0.232551
 H  -22.581019   -1.205537    2.536065
 H  -26.975923    0.985456    3.485163
 H  -24.274232    0.122217    3.806204
