31 
3fuj_ligand_xtb.xyz
 C  -31.884366   -1.270147   -0.341035
 C  -32.668702   -2.299171    0.101229
 C  -32.501477   -3.365385   -0.804247
 C  -31.618896   -2.943051   -1.759568
 N  -31.254560   -1.663108   -1.479095
 C  -30.283099   -0.895376   -2.201788
 C  -28.885038   -1.020290   -1.581442
 O  -28.895850   -0.307318   -0.369598
 C  -27.778251   -0.343493    0.423513
 C  -27.915716    0.337141    1.648189
 C  -26.596251   -0.971563    0.088822
 C  -25.537726   -0.915097    0.999777
 C  -24.213047   -1.431877    0.989849
 C  -23.630432   -1.056350    2.162023
 N  -24.514282   -0.331166    2.909574
 C  -25.692331   -0.227191    2.224873
 C  -26.885717    0.404019    2.554717
 H  -31.720959   -0.292789    0.066896
 H  -33.295954   -2.293362    0.970896
 H  -32.977058   -4.325394   -0.757021
 H  -31.234372   -3.451855   -2.622543
 H  -30.247244   -1.245301   -3.236853
 H  -30.572426    0.159197   -2.187109
 H  -28.653265   -2.080235   -1.405865
 H  -28.137996   -0.600024   -2.270758
 H  -28.864740    0.806284    1.852359
 H  -26.465669   -1.496647   -0.844003
 H  -23.759783   -2.007902    0.207960
 H  -22.639635   -1.253406    2.524985
 H  -27.003160    0.928650    3.491176
 H  -24.329999    0.060208    3.817084
