14 
3fw4_ligand_dft.xyz
 C   -1.906017   -0.657803   -0.000004
 C   -0.718246   -1.388349   -0.000045
 C    0.502958   -0.728934    0.000001
 O    1.661133   -1.435400    0.000059
 C    0.530270    0.672778   -0.000000
 O    1.786187    1.223907   -0.000079
 C   -0.650299    1.399639    0.000030
 C   -1.875573    0.731328    0.000012
 H   -2.856240   -1.182263   -0.000098
 H   -0.719707   -2.473373   -0.000017
 H    2.390813   -0.799651   -0.000006
 H    1.721026    2.185224    0.000220
 H   -0.615087    2.487094   -0.000010
 H   -2.797922    1.302951    0.000109
