14 
3fw4_ligand_xtb.xyz
 C   25.340618   79.642182   61.455652
 C   26.235602   78.999480   62.294021
 C   27.413888   79.625347   62.668856
 O   28.292699   78.996198   63.491139
 C   27.688061   80.913442   62.190285
 O   28.873070   81.485860   62.595428
 C   26.789637   81.548817   61.353569
 C   25.614371   80.912831   60.985513
 H   24.426416   79.144965   61.170538
 H   26.040080   78.008653   62.671104
 H   29.042472   79.590442   63.632626
 H   28.950765   82.363097   62.206337
 H   27.011468   82.543548   60.989865
 H   24.918553   81.415936   60.332067
