14 
3fw4_ligand_aiqm1.xyz
 C   25.334123   79.639659   61.453105
 C   26.239315   78.998058   62.296997
 C   27.416304   79.634436   62.665887
 O   28.299184   79.006609   63.490023
 C   27.683514   80.918149   62.185301
 O   28.873030   81.463651   62.606311
 C   26.785867   81.557889   61.346761
 C   25.603983   80.917073   60.977347
 H   24.420909   79.135468   61.171940
 H   26.050626   78.004231   62.679572
 H   29.043915   79.601688   63.627451
 H   28.969899   82.339987   62.229215
 H   27.010073   82.554809   60.983323
 H   24.906959   81.419092   60.323767
