60 
3fzt_ligand_dft.xyz
 C   -5.646478    3.677502    9.523687
 C   -7.803633    0.405735   15.949744
 C    0.062460   -8.545389   10.017351
 C   -6.961837    0.393645   14.846899
 C   -5.358140    0.250910   10.691356
 C   -6.054659    1.373390   10.386727
 C   -3.638177   -4.269788   13.037337
 C   -9.605399    1.220191   14.603584
 C   -1.154438   -7.955462    9.685317
 C   -9.135678    0.819589   15.853655
 C   -2.332289   -5.945985   12.469803
 C  -10.035401    0.808919   17.063352
 C   -7.449120    2.231969    8.518303
 C   -5.027139    1.677683    8.145566
 C    0.696134   -9.326380    9.051716
 C   -8.784149    1.200377   13.481227
 C    0.101485   -9.489333    7.809836
 C   -2.823267   -4.702945   12.011857
 C   -1.672545   -8.183045    8.400697
 C   -1.378403   -6.861597   11.779641
 C   -7.458734    0.787455   13.603153
 C   -5.717076   -0.145334   12.034090
 C   -4.526061   -2.095612   12.307700
 C   -6.043835    2.236589    9.147883
 N   -3.583260   -5.225232   14.002794
 N   -1.069467   -8.926799    7.484082
 N   -2.790943   -6.268421   13.670236
 N   -6.907949    1.684060   11.431653
 N   -4.412469   -3.139497   13.217342
 N   -5.408322   -1.156929   12.802163
 N   -6.605296    0.812855   12.474368
 O   -3.894456   -2.087480   11.259103
 O   -1.901593   -7.174144   10.495354
 H   -4.673938    3.700828   10.026297
 H   -5.577609    4.290319    8.618913
 H   -6.387199    4.154482   10.177109
 H   -7.410138    0.096109   16.914826
 H    0.512833   -8.412744   10.994558
 H   -5.932187    0.072110   14.932717
 H   -4.668642   -0.300269   10.076128
 H  -10.637200    1.544605   14.496334
 H   -9.518409    1.196496   17.947264
 H  -10.930450    1.416664   16.901508
 H  -10.364680   -0.210242   17.297817
 H   -8.199289    2.630198    9.209194
 H   -7.454287    2.849595    7.613651
 H   -7.748299    1.215689    8.243257
 H   -5.017516    2.298804    7.244072
 H   -4.016159    1.669696    8.565435
 H   -5.283404    0.655505    7.849755
 H    1.646007   -9.803416    9.271770
 H   -9.173283    1.490070   12.510901
 H    0.575376  -10.093230    7.039989
 H   -2.634947   -4.197380   11.081053
 H   -2.623391   -7.725918    8.135474
 H   -0.395963   -6.382284   11.661637
 H   -1.255633   -7.770043   12.382345
 H   -4.056892   -5.238288   14.890880
 H   -6.960191    2.650057   11.739015
 H   -5.004377   -3.065913   14.030521
