60 
3fzt_ligand_ani-2x.xyz
 C   -5.706008    3.514503    9.371719
 C   -7.719614    0.531518   16.030104
 C   -0.029961   -8.605645   10.041229
 C   -6.907503    0.412704   14.908972
 C   -5.449527    0.077684   10.697725
 C   -6.054847    1.258969   10.389057
 C   -3.896691   -4.472337   13.029207
 C   -9.471597    1.469030   14.698317
 C   -0.874507   -7.602260    9.581889
 C   -9.009314    1.053523   15.951034
 C   -2.610635   -6.157905   12.442762
 C   -9.881712    1.168635   17.174333
 C   -7.533774    2.017966    8.532944
 C   -5.132266    1.436280    8.109498
 C    0.703795   -9.327952    9.103096
 C   -8.671842    1.373198   13.571277
 C    0.566116   -9.024714    7.757404
 C   -3.040449   -4.879490   12.027205
 C   -0.943943   -7.371783    8.200751
 C   -1.639341   -7.069546   11.763235
 C   -7.382880    0.837102   13.667743
 C   -5.788731   -0.253862   12.054033
 C   -4.698007   -2.253999   12.327914
 C   -6.110145    2.051513    9.114007
 N   -3.933475   -5.476831   13.942044
 N   -0.245613   -8.061163    7.308903
 N   -3.147475   -6.518882   13.599820
 N   -6.813067    1.705352   11.485081
 N   -4.642116   -3.316215   13.219750
 N   -5.524265   -1.271253   12.840077
 N   -6.567283    0.787709   12.518631
 O   -4.073323   -2.252134   11.276297
 O   -1.645765   -6.808956   10.366807
 H   -4.720138    3.568190    9.846183
 H   -5.661697    4.059741    8.422317
 H   -6.432176    4.029947   10.009709
 H   -7.336385    0.195631   16.991951
 H    0.063732   -8.828819   11.099680
 H   -5.913112   -0.015710   14.981682
 H   -4.807049   -0.526218   10.082104
 H  -10.474535    1.883144   14.609190
 H   -9.369011    0.797949   18.066602
 H  -10.167987    2.210084   17.362299
 H  -10.807725    0.593473   17.058045
 H   -8.246570    2.457035    9.236766
 H   -7.571868    2.586956    7.597319
 H   -7.845168    0.988902    8.324848
 H   -5.129256    2.010214    7.176145
 H   -4.115822    1.431069    8.515941
 H   -5.412128    0.405170    7.870689
 H    1.375010  -10.120098    9.423813
 H   -9.025183    1.706915   12.601030
 H    1.126234   -9.572615    7.001934
 H   -2.780038   -4.327260   11.137796
 H   -1.602125   -6.588871    7.826188
 H   -0.628225   -6.908148   12.165079
 H   -1.924884   -8.107457   11.970499
 H   -4.459922   -5.525885   14.799746
 H   -6.550466    2.646315   11.789597
 H   -5.217742   -3.207412   14.039981
