60 
3fzt_ligand_aiqm1.xyz
 C   -5.831208    3.681591    9.469434
 C   -7.725666    0.387652   15.984695
 C   -0.016511   -8.627907   10.111952
 C   -6.913793    0.368523   14.855028
 C   -5.393224    0.223391   10.665711
 C   -6.058155    1.363820   10.367997
 C   -3.748212   -4.317142   12.996924
 C   -9.528185    1.307347   14.707779
 C   -1.053988   -7.832560    9.634036
 C   -9.039316    0.858269   15.937848
 C   -2.439698   -5.988105   12.427821
 C   -9.907576    0.878011   17.166984
 C   -7.432480    2.066959    8.420250
 C   -4.965136    1.734812    8.156680
 C    0.655713   -9.439690    9.195399
 C   -8.736051    1.288976   13.564365
 C    0.277175   -9.428564    7.863289
 C   -2.918866   -4.739259   11.974921
 C   -1.362542   -7.893221    8.266377
 C   -1.480476   -6.918274   11.770952
 C   -7.424280    0.814922   13.637003
 C   -5.762257   -0.161926   12.018888
 C   -4.613848   -2.138540   12.277380
 C   -6.066462    2.208057    9.108564
 N   -3.721310   -5.272029   13.951331
 N   -0.721337   -8.665662    7.398139
 N   -2.924862   -6.321283   13.622733
 N   -6.916165    1.695608   11.424107
 N   -4.509259   -3.181371   13.176134
 N   -5.474597   -1.182514   12.783267
 N   -6.600037    0.824896   12.482469
 O   -3.993414   -2.124811   11.225831
 O   -1.806701   -6.990919   10.384140
 H   -4.889002    3.815811   10.003663
 H   -5.788150    4.272857    8.553871
 H   -6.642753    4.084807   10.079453
 H   -7.324966    0.029787   16.926252
 H    0.266325   -8.629909   11.155490
 H   -5.908433   -0.020765   14.896171
 H   -4.711839   -0.322739   10.042172
 H  -10.546781    1.670708   14.634969
 H   -9.364650    0.498709   18.033130
 H  -10.245474    1.891441   17.391944
 H  -10.798160    0.263031   17.025802
 H   -8.244798    2.380951    9.080117
 H   -7.456637    2.690472    7.524666
 H   -7.609941    1.034183    8.120644
 H   -4.979512    2.347486    7.253685
 H   -3.980274    1.819161    8.617808
 H   -5.121485    0.696166    7.865323
 H    1.467969  -10.074990    9.524114
 H   -9.136116    1.629441   12.618269
 H    0.784194  -10.049145    7.135841
 H   -2.726410   -4.223637   11.054013
 H   -2.171837   -7.276129    7.892974
 H   -0.446908   -6.567924   11.887591
 H   -1.555024   -7.904670   12.235125
 H   -4.215254   -5.278792   14.823047
 H   -6.915001    2.663195   11.718087
 H   -5.096357   -3.105568   13.987352
