27 
3g0i_ligand_xtb.xyz
 C   27.053534   38.079157   58.847964
 C   26.256804   37.356748   59.927400
 C   24.751827   37.492261   59.702809
 C   23.940656   36.789675   60.796847
 C   22.423697   36.915871   60.587711
 C   21.890949   38.316085   60.887390
 C   20.375149   38.376854   60.741213
 C   24.314816   35.314648   60.902301
 N   24.100515   34.588123   59.780265
 O   24.754561   34.813099   61.912292
 H   26.829717   37.667817   57.865613
 H   26.809445   39.139446   58.837849
 H   28.120716   37.975027   59.027037
 H   26.510835   37.769157   60.905677
 H   26.530926   36.299880   59.938308
 H   24.494498   37.084302   58.721582
 H   24.491487   38.552490   59.693463
 H   24.197112   37.234438   61.763653
 H   21.921843   36.205503   61.249875
 H   22.165983   36.649307   59.559310
 H   22.344280   39.039473   60.207552
 H   22.167973   38.595214   61.905852
 H   20.077349   38.118039   59.727150
 H   19.897474   37.679774   61.426115
 H   20.010032   39.377370   60.960271
 H   24.308578   33.603906   59.794391
 H   23.721142   34.989736   58.943309
