39 
3g2h_ligand_xtb.xyz
 C    4.608112   -1.308999   -0.298126
 C    5.934662   -1.159450    0.056444
 C    6.348928   -0.029862    0.743974
 C    5.429296    0.951368    1.076482
 C    4.100318    0.808339    0.724872
 C    3.678004   -0.325013    0.033163
 C    2.287855   -0.500062   -0.349281
 C    1.189933    0.324568   -0.158772
 N    1.848516   -1.598856   -1.010296
 N    0.596581   -1.502373   -1.221066
 N    0.159296   -0.345729   -0.717504
 C   -1.219784    0.055172   -0.808697
 O   -1.524729    0.739541    0.374870
 C   -2.860572    1.224750    0.419931
 C   -3.015187    1.981116    1.743056
 O   -2.160686    3.086829    1.816381
 C   -3.862559    0.070751    0.311330
 O   -5.157492    0.601756    0.296969
 C   -3.581779   -0.731179   -0.965202
 O   -4.457255   -1.828701   -0.991499
 C   -2.117573   -1.185154   -0.995900
 O   -1.902234   -1.825842   -2.220551
 H    4.268039   -2.181635   -0.833448
 H    6.650064   -1.925684   -0.203496
 H    7.386302    0.086465    1.020819
 H    5.749929    1.832572    1.612780
 H    3.389246    1.577102    0.988226
 H    1.057140    1.276428    0.305810
 H   -1.349180    0.721069   -1.685540
 H   -3.028015    1.919757   -0.416785
 H   -4.035913    2.357844    1.812699
 H   -2.825799    1.282154    2.569037
 H   -1.259697    2.769121    1.685272
 H   -3.731001   -0.603196    1.173989
 H   -5.754672   -0.115205    0.045416
 H   -3.761176   -0.087507   -1.842820
 H   -4.164098   -2.411984   -1.702866
 H   -1.935336   -1.869436   -0.151716
 H   -0.977685   -2.131235   -2.237556
