33 
3g2i_ligand_aiqm1.xyz
 O   -0.219825   -2.867172   -0.181723
 C   -0.671196   -1.618772    0.289130
 C   -2.164909   -1.571333    0.034539
 O   -2.861223   -2.553414    0.778304
 C   -2.715513   -0.220569    0.444708
 O   -4.081712   -0.103681    0.111178
 C   -1.967813    0.882900   -0.294901
 C   -2.397906    2.267332    0.141317
 O   -1.739877    3.277170   -0.596792
 O   -0.562147    0.780336   -0.014875
 C   -0.027844   -0.448564   -0.461041
 N    1.402419   -0.381405   -0.226862
 C    2.274173    0.579407   -0.596785
 N    2.046978   -1.376855    0.415795
 N    3.310511   -1.067326    0.463347
 C    3.498771    0.130755   -0.153808
 C    4.849657    0.760573   -0.225219
 O    5.012712    1.786614    0.753936
 H    0.689308   -2.985397    0.111090
 H   -0.480176   -1.489384    1.359491
 H   -2.338360   -1.716314   -1.039153
 H   -2.470705   -3.405251    0.569458
 H   -2.563293   -0.096350    1.526294
 H   -4.530308   -0.875934    0.465530
 H   -2.136511    0.766702   -1.375582
 H   -3.463288    2.371227   -0.051243
 H   -2.220866    2.377937    1.216774
 H   -0.813188    3.268776   -0.346386
 H   -0.190138   -0.559407   -1.543198
 H    1.963693    1.475468   -1.106543
 H    4.994507    1.253429   -1.186833
 H    5.607300   -0.015783   -0.114261
 H    4.966770    1.374287    1.618812
