31 
3g2j_ligand_xtb.xyz
 O   -0.032645    1.265188    2.443099
 C   -0.264684    0.983940    1.094846
 C   -1.792456    0.973519    0.933727
 O   -2.323986    2.256918    1.147491
 C   -2.208756    0.507113   -0.462172
 O   -3.601205    0.402270   -0.563972
 C   -1.579020   -0.863877   -0.719262
 C   -1.880675   -1.374142   -2.130974
 O   -1.399552   -2.673001   -2.333658
 O   -0.165962   -0.779694   -0.604128
 C    0.308450   -0.382766    0.657253
 N    1.743721   -0.374107    0.465731
 C    2.722733    0.151314    1.213019
 O    2.579225    0.802726    2.232567
 C    4.115304   -0.158502    0.658926
 O    4.112611   -0.550913   -0.690553
 H    0.933888    1.207476    2.612568
 H    0.160025    1.764586    0.440678
 H   -2.202443    0.271810    1.679542
 H   -1.932917    2.589674    1.965404
 H   -1.821267    1.226857   -1.202256
 H   -3.972270    1.206854   -0.177865
 H   -1.971591   -1.581680    0.016409
 H   -2.961884   -1.406474   -2.267583
 H   -1.441627   -0.674938   -2.855940
 H   -0.460048   -2.676085   -2.115387
 H    0.030147   -1.128694    1.428943
 H    2.040232   -0.909428   -0.344069
 H    4.763369    0.704974    0.844106
 H    4.512653   -1.005194    1.227832
 H    3.990730    0.224578   -1.249823
