45 
3g2l_ligand_xtb.xyz
 C    3.929725    0.058407   -0.058106
 C    3.920992   -1.343968   -0.209561
 C    5.064698   -2.075729   -0.046819
 C    6.275745   -1.447583    0.277909
 C    6.317809   -0.092051    0.438228
 C    5.156366    0.693401    0.279285
 C    5.197931    2.092155    0.449325
 C    4.067346    2.844284    0.297149
 C    2.854944    2.229509   -0.029941
 C    2.766022    0.865384   -0.209311
 C    1.463848    0.303474   -0.542414
 C    0.212160    0.820307   -0.238266
 N    1.256608   -0.830538   -1.253382
 N    0.005682   -1.033612   -1.390422
 N   -0.662051   -0.051545   -0.782898
 C   -2.100050    0.001041   -0.770255
 O   -2.477792    0.526292    0.471925
 C   -3.884836    0.664864    0.623104
 C   -4.125748    1.290960    2.000310
 O   -3.564747    2.569013    2.099452
 C   -4.581938   -0.693305    0.492763
 O   -5.964686   -0.497958    0.586225
 C   -4.205619   -1.333968   -0.848683
 O   -4.787976   -2.610651   -0.900137
 C   -2.680950   -1.410591   -0.991902
 O   -2.404075   -1.912571   -2.267847
 H    2.996221   -1.831492   -0.472277
 H    5.040552   -3.148761   -0.168299
 H    7.169452   -2.041735    0.401565
 H    7.243706    0.404636    0.692018
 H    6.140474    2.557556    0.699627
 H    4.098768    3.916405    0.423959
 H    1.976631    2.844494   -0.161216
 H   -0.111132    1.672878    0.317026
 H   -2.448136    0.659319   -1.591560
 H   -4.273881    1.339319   -0.154658
 H   -3.713716    0.619777    2.766033
 H   -5.200127    1.398516    2.151423
 H   -2.623830    2.491921    1.902828
 H   -4.230241   -1.357732    1.299333
 H   -6.386261   -1.326136    0.321021
 H   -4.597477   -0.709850   -1.669406
 H   -4.414661   -3.065234   -1.665764
 H   -2.278975   -2.072664   -0.208139
 H   -1.436672   -1.976038   -2.359343
