37 
3g2n_ligand_aiqm1.xyz
 C    3.422941    0.126369    1.049914
 C    4.742991    0.393082    1.396413
 C    5.732063    0.410830    0.415831
 C    5.402125    0.144747   -0.912031
 C    4.085795   -0.131392   -1.257714
 C    3.087757   -0.130331   -0.281997
 C    1.694384   -0.419899   -0.725022
 O    1.455636   -0.964019   -1.801437
 N    0.700081   -0.054790    0.127237
 C   -0.696430   -0.042163   -0.280985
 O   -1.309972    0.849316    0.625378
 C   -2.706525    1.054710    0.358339
 C   -3.192004    2.082745    1.355618
 O   -2.559423    3.335028    1.174737
 C   -3.442118   -0.274184    0.476155
 O   -4.804408   -0.037288    0.187777
 C   -2.834521   -1.263824   -0.493837
 O   -3.543402   -2.482304   -0.361669
 C   -1.347905   -1.427783   -0.221191
 O   -0.855703   -2.343156   -1.175767
 H    2.668575    0.086147    1.826779
 H    4.998889    0.583056    2.429933
 H    6.757452    0.623074    0.687783
 H    6.171053    0.146294   -1.673110
 H    3.806534   -0.354691   -2.277880
 H    0.920684    0.547400    0.901925
 H   -0.767932    0.329594   -1.314936
 H   -2.831472    1.443773   -0.662424
 H   -3.037012    1.700996    2.372191
 H   -4.256802    2.239200    1.200033
 H   -1.622756    3.220325    1.350881
 H   -3.322207   -0.663687    1.497751
 H   -5.219590   -0.895449    0.067269
 H   -2.951177   -0.873349   -1.513968
 H   -3.092592   -3.131510   -0.906631
 H   -1.207528   -1.832226    0.791457
 H   -0.045581   -1.994443   -1.579299
