22 
3g2z_ligand_aiqm1.xyz
 O   27.381943   95.421929   -6.010720
 C   27.292059   94.554355   -6.857749
 C   28.451544   93.733970   -7.247947
 C   28.327534   92.756368   -8.166384
 C   27.017127   92.409179   -8.825066
 C   25.825133   92.844846   -7.980754
 C   25.985358   94.308167   -7.588598
 N   29.390122   91.968724   -8.642532
 C   30.698011   92.015381   -8.261609
 N   31.268974   92.812031   -7.380320
 N   32.587277   92.459693   -7.369902
 N   32.832394   91.506302   -8.187257
 N   31.642988   91.202248   -8.770569
 H   29.393193   93.970435   -6.773419
 H   26.983851   92.905273   -9.801908
 H   26.979644   91.331298   -9.009325
 H   24.901949   92.688477   -8.538440
 H   25.769126   92.223600   -7.082463
 H   25.173610   94.663868   -6.958108
 H   25.991602   94.928885   -8.492274
 H   29.147088   91.266437   -9.318549
 H   31.583472   90.475533   -9.459107
