27 
3g32_ligand_dft.xyz
 O   28.490874   94.432068   -8.438628
 C   27.557812   93.684418   -8.213001
 C   26.416188   93.877302   -7.279059
 C   26.122638   94.935829   -6.440086
 C   24.970964   94.826367   -5.656050
 C   24.158401   93.692623   -5.720387
 C   24.467766   92.627375   -6.570916
 C   25.607650   92.747200   -7.342928
 N   27.373339   92.436377   -8.796212
 C   26.203846   91.805901   -8.332949
 O   25.812680   90.728203   -8.708521
 C   28.204497   91.878080   -9.847916
 C   29.151625   90.778196   -9.367060
 C   30.230718   91.218221   -8.429631
 N   31.054771   90.414528   -7.789500
 N   31.888106   91.213439   -7.084287
 N   31.605907   92.455883   -7.265245
 N   30.568671   92.481814   -8.118749
 H   26.763385   95.810020   -6.396117
 H   24.703143   95.634978   -4.983501
 H   23.271941   93.638386   -5.096479
 H   23.844993   91.740906   -6.626506
 H   27.537170   91.457195  -10.604041
 H   28.750433   92.709740  -10.302337
 H   28.574744   89.982510   -8.886882
 H   29.625813   90.328449  -10.246682
 H   30.113927   93.360991   -8.359329
