41 
3g45_ligand_ani-2x.xyz
 C   28.789296   23.113933   10.425471
 C   29.137757   21.825507   10.907194
 C   29.433730   21.692360   12.290573
 N   29.400147   22.762907   13.134888
 C   29.088959   23.935176   12.644853
 C   28.765828   24.170989   11.287858
 C   29.206559   20.697228   10.053871
 C   29.573632   19.470343   10.545287
 C   29.868255   19.346329   11.916365
 C   29.803975   20.402486   12.800028
 C   30.134465   20.162385   14.229907
 C   31.258983   19.385791   14.534503
 C   31.556885   19.094854   15.853484
 C   30.758047   19.514349   16.907085
 C   29.629994   20.267811   16.605779
 C   29.322240   20.595859   15.288361
 C   29.657609   18.237842    9.662836
 C   28.767798   17.126199   10.161757
 C   27.397434   17.333254   10.296981
 C   26.601042   16.296094   10.769933
 N   27.070640   15.096971   11.121342
 C   28.385261   14.911096   10.999911
 C   29.266548   15.880655   10.530134
 N   32.753408   18.287328   16.142185
 O   33.431218   17.922012   15.197214
 O   32.993413   18.033964   17.309732
 H   28.551690   23.239795    9.370583
 H   29.076577   24.766570   13.348437
 H   28.509836   25.173938   10.958873
 H   28.967370   20.829379    8.999981
 H   30.132784   18.362077   12.299583
 H   31.920004   19.022935   13.753879
 H   31.022780   19.251470   17.924363
 H   28.986376   20.610636   17.410153
 H   28.444178   21.198338   15.075080
 H   30.691375   17.874710    9.625937
 H   29.378835   18.511263    8.638442
 H   26.955272   18.291815   10.038018
 H   25.526072   16.436915   10.874820
 H   28.760001   13.930725   11.292276
 H   30.328724   15.661912   10.455641
