41 
3g4g_ligand_xtb.xyz
 C   23.073174    6.110913   19.224870
 C   23.609821    6.799941   18.139051
 C   24.705725    7.641558   18.370108
 C   24.719444    7.151932   20.588174
 C   23.635868    6.287822   20.474180
 C   24.769017    8.257217   16.023241
 O   26.176415   13.192052   16.724079
 N   27.251247   12.779953   17.097906
 O   28.249646   13.454952   17.217331
 C   27.350309   11.377742   17.438470
 C   26.255395   10.553737   17.219621
 C   28.528541   10.890812   17.988435
 C   28.607055    9.551689   18.323604
 C   27.528272    8.711180   18.103665
 C   26.354873    9.213920   17.554451
 N   25.247600    8.348081   17.322292
 N   25.243447    7.810252   19.572994
 O   25.279073    8.873699   15.119124
 N   23.687101    7.421039   15.826831
 C   23.049777    6.657884   16.794954
 O   22.107368    5.948550   16.523049
 C   23.195249    7.304520   14.450976
 C   23.911693    6.189205   13.735533
 C   25.104724    6.424436   13.062532
 C   25.740636    5.352785   12.454441
 N   25.273996    4.116524   12.482370
 C   24.140013    3.895569   13.124188
 C   23.419249    4.890023   13.767700
 H   22.228922    5.459243   19.057317
 H   25.197739    7.330390   21.541581
 H   23.249475    5.775226   21.339525
 H   25.356979   10.964791   16.786191
 H   29.356990   11.564609   18.144034
 H   29.514737    9.156657   18.751747
 H   27.591315    7.665349   18.357986
 H   23.376236    8.259220   13.954523
 H   22.125418    7.095422   14.512085
 H   25.525109    7.417146   13.023369
 H   26.670716    5.488984   11.918343
 H   23.794239    2.870157   13.122057
 H   22.501598    4.663920   14.287872
