41 
3g4g_ligand_ani-2x.xyz
 C   22.988044    6.143546   19.323955
 C   23.544085    6.800631   18.227255
 C   24.601742    7.691261   18.442321
 C   24.528322    7.334483   20.690685
 C   23.484047    6.414701   20.585950
 C   24.646413    8.279063   16.062553
 O   26.231626   13.204894   16.854854
 N   27.321017   12.755916   17.166483
 O   28.338242   13.417027   17.283387
 C   27.415625   11.311391   17.424094
 C   26.278836   10.538916   17.243029
 C   28.631418   10.771021   17.814723
 C   28.695490    9.403061   18.054698
 C   27.559692    8.607723   17.920203
 C   26.349943    9.180934   17.520150
 N   25.173191    8.358539   17.352727
 N   25.084293    7.957056   19.657516
 O   25.095616    8.932501   15.142118
 N   23.578206    7.396053   15.882298
 C   23.023875    6.576021   16.876290
 O   22.160870    5.758395   16.604754
 C   23.115414    7.198350   14.498038
 C   23.938682    6.168782   13.752204
 C   25.112669    6.531321   13.096018
 C   25.841310    5.545569   12.439327
 N   25.489640    4.259020   12.401012
 C   24.371535    3.920839   13.043567
 C   23.569055    4.825824   13.730411
 H   22.176120    5.442847   19.152758
 H   24.943157    7.576661   21.666586
 H   23.080008    5.934599   21.471163
 H   25.370323   10.989364   16.866339
 H   29.496266   11.415595   17.922755
 H   29.635657    8.956113   18.363239
 H   27.597286    7.544934   18.143563
 H   23.176492    8.166682   14.000685
 H   22.074060    6.885718   14.560620
 H   25.455732    7.561259   13.115860
 H   26.758376    5.805295   11.913383
 H   24.096995    2.867949   13.007216
 H   22.674830    4.489247   14.246011
