41 
3g4i_ligand_ani-2x.xyz
 C   22.326656   -1.487533   34.680222
 C   22.372799   -2.535744   33.762175
 C   22.585558   -3.835277   34.235521
 C   22.742159   -3.094964   36.383831
 C   22.518331   -1.766147   36.021053
 C   22.611299   -4.710539   31.945535
 O   25.983247   -8.576414   32.988881
 N   25.089507   -9.127603   33.607678
 O   25.115913  -10.286761   33.983336
 C   23.892575   -8.336075   33.928331
 C   23.826164   -7.032462   33.461466
 C   22.870404   -8.920004   34.661088
 C   21.749797   -8.150869   34.953803
 C   21.672524   -6.825207   34.532698
 C   22.716895   -6.266593   33.791501
 N   22.633073   -4.900033   33.328278
 N   22.771406   -4.110144   35.527847
 O   22.743471   -5.633626   31.166812
 N   22.417226   -3.399364   31.502376
 C   22.216366   -2.282971   32.327664
 O   21.949832   -1.192141   31.852224
 C   22.246554   -3.214714   30.051114
 C   20.820764   -3.453510   29.599255
 C   20.375358   -4.735692   29.286371
 C   19.052513   -4.904459   28.892073
 N   18.169306   -3.908707   28.798660
 C   18.602575   -2.687789   29.113390
 C   19.903489   -2.408174   29.518521
 H   22.148088   -0.481685   34.311588
 H   22.900627   -3.353661   37.428380
 H   22.498834   -0.984090   36.772952
 H   24.612955   -6.640501   32.830978
 H   22.962507   -9.950118   34.985876
 H   20.936491   -8.584675   35.527582
 H   20.815166   -6.210026   34.792145
 H   22.923238   -3.914139   29.559522
 H   22.553923   -2.193608   29.829890
 H   21.047665   -5.584327   29.368096
 H   18.682773   -5.895715   28.635580
 H   17.871752   -1.884562   29.035982
 H   20.195622   -1.394176   29.773923
