41 
3g58_ligand_xtb.xyz
 C   21.552217   -1.415445   33.935570
 C   21.787049   -2.497353   33.060658
 C   22.074041   -3.762283   33.643378
 N   22.139810   -3.929317   34.977698
 C   21.922386   -2.906586   35.754864
 C   21.617288   -1.616533   35.286766
 C   21.750244   -2.363316   31.659724
 C   22.002736   -3.437559   30.847943
 C   22.289396   -4.686304   31.427218
 C   22.327084   -4.871643   32.788365
 C   22.643045   -6.192837   33.348708
 C   23.657207   -6.957880   32.784100
 C   23.953779   -8.207167   33.309627
 C   23.257833   -8.718711   34.398398
 C   22.247936   -7.957183   34.955890
 C   21.941263   -6.709588   34.438478
 C   21.940647   -3.330026   29.347380
 C   20.730347   -4.075423   28.851639
 C   19.451657   -3.580091   29.084115
 C   18.361974   -4.309971   28.640536
 N   18.467898   -5.464895   28.005469
 C   19.681381   -5.938029   27.785902
 C   20.839680   -5.289491   28.186152
 N   25.007037   -8.986494   32.711382
 O   25.546653   -8.539673   31.720099
 O   25.291554  -10.045280   33.230097
 H   21.328448   -0.441632   33.521916
 H   21.990408   -3.102106   36.817662
 H   21.445760   -0.813426   35.986431
 H   21.526336   -1.392702   31.238826
 H   22.463496   -5.528746   30.773241
 H   24.239050   -6.589382   31.952731
 H   23.516354   -9.693145   34.782766
 H   21.693403   -8.338937   35.799192
 H   21.150480   -6.124070   34.877572
 H   22.843419   -3.759135   28.908151
 H   21.872877   -2.280570   29.054556
 H   19.312102   -2.643046   29.601950
 H   17.351754   -3.955894   28.799886
 H   19.726593   -6.884477   27.263047
 H   21.807078   -5.721053   27.976115
