41 
3g58_ligand_aiqm1.xyz
 C   21.725706   -1.339240   33.933577
 C   21.876500   -2.457056   33.079175
 C   22.128097   -3.718438   33.675128
 N   22.229333   -3.876174   35.025923
 C   22.091219   -2.811470   35.783138
 C   21.835660   -1.509270   35.287506
 C   21.791334   -2.340319   31.665726
 C   21.970249   -3.435739   30.856059
 C   22.237083   -4.694213   31.461509
 C   22.306479   -4.857701   32.823854
 C   22.584619   -6.211247   33.390829
 C   23.689029   -6.937603   32.937905
 C   23.929408   -8.197815   33.460902
 C   23.111095   -8.784845   34.415471
 C   22.005486   -8.064448   34.856618
 C   21.745216   -6.792713   34.349897
 C   21.864993   -3.336567   29.350107
 C   20.675763   -4.099859   28.806008
 C   19.391007   -3.905407   29.317554
 C   18.332198   -4.636185   28.786972
 N   18.459982   -5.532851   27.801838
 C   19.692834   -5.715558   27.319383
 C   20.816898   -5.035556   27.782301
 N   25.101840   -8.945071   32.981261
 O   25.795266   -8.421245   32.123032
 O   25.307904  -10.045434   33.469351
 H   21.531573   -0.365006   33.501321
 H   22.180969   -2.968623   36.852495
 H   21.733871   -0.679320   35.973335
 H   21.590816   -1.363146   31.238180
 H   22.379165   -5.552520   30.812758
 H   24.364538   -6.539786   32.193242
 H   23.348583   -9.770003   34.788300
 H   21.347948   -8.495388   35.600394
 H   20.891992   -6.232581   34.712241
 H   22.774094   -3.724476   28.886470
 H   21.782543   -2.284701   29.067120
 H   19.219354   -3.200170   30.122192
 H   17.329327   -4.497084   29.174033
 H   19.790994   -6.444673   26.523729
 H   21.788733   -5.237901   27.347363
