62 
3g5k_ligand_ani-2x.xyz
 C    2.999568    2.754377   -0.465744
 C    2.704986    4.235043   -0.418590
 O    2.825064    4.992207   -1.375681
 N    2.287439    4.698441    0.795750
 O    1.861022    6.020039    0.802941
 C    1.878722    1.990236   -1.182446
 C    0.598035    2.009611   -0.341747
 O    0.592517    2.293433    0.850831
 C    2.265962    0.528309   -1.480888
 C    2.615606   -0.279200   -0.227714
 C    2.546856   -1.789940   -0.452175
 C    2.832858   -2.607486    0.807936
 C    2.499886   -4.089142    0.633316
 N   -0.552193    1.659322   -1.003257
 C   -1.635964    1.036924   -0.259262
 C   -3.008357    1.280266   -0.925481
 C   -3.059666    0.832113   -2.387967
 C   -3.395764    2.753066   -0.796571
 C   -1.312346   -0.469493   -0.124854
 O   -0.734412   -1.043645   -1.056368
 N   -1.653232   -1.112246    1.013773
 C   -1.027480   -2.395864    1.400617
 C   -2.474213   -0.544392    2.090625
 C   -2.661058   -1.716315    3.052985
 C   -1.361944   -2.508359    2.891393
 C   -1.518663   -3.587718    0.567848
 O   -0.799211   -3.750236   -0.629105
 H    3.134264    2.371551    0.549659
 H    3.934415    2.629274   -1.020321
 H    1.638798    4.095542    1.301108
 H    1.998390    6.278534   -0.133128
 H    1.670155    2.496032   -2.135129
 H    1.428940    0.048161   -1.999177
 H    3.111472    0.516093   -2.181008
 H    3.615835    0.003426    0.131167
 H    1.918577   -0.009670    0.578887
 H    3.244533   -2.089413   -1.248047
 H    1.541705   -2.042881   -0.818805
 H    3.886410   -2.486267    1.094921
 H    2.245339   -2.201018    1.645562
 H    2.720484   -4.659690    1.541595
 H    1.436294   -4.223206    0.392980
 H    3.082327   -4.526350   -0.186194
 H   -0.399614    1.233854   -1.908964
 H   -1.643629    1.506693    0.728295
 H   -3.743025    0.678740   -0.368733
 H   -4.082948    0.919465   -2.769891
 H   -2.736445   -0.205928   -2.511007
 H   -2.423398    1.463667   -3.019525
 H   -2.663724    3.387191   -1.308047
 H   -4.377842    2.934950   -1.246415
 H   -3.443974    3.067854    0.252302
 H    0.056340   -2.330267    1.237271
 H   -1.949708    0.289798    2.580110
 H   -3.424724   -0.164487    1.700988
 H   -3.520036   -2.321869    2.743552
 H   -2.833782   -1.386184    4.080841
 H   -1.452054   -3.551697    3.210550
 H   -0.561739   -2.050689    3.484388
 H   -2.599637   -3.486531    0.375569
 H   -1.370816   -4.510263    1.145389
 H   -0.750903   -2.863668   -1.038809
