68 
3gcq_ligand_xtb.xyz
 C   -3.888820    0.584357  -24.046492
 C   -4.303452   -0.549572  -23.300193
 C   -3.503374   -0.836401  -22.137888
 N   -2.458476   -0.091635  -21.833196
 N   -2.811799    1.323426  -23.690506
 C   -1.021175   -9.475536  -14.922871
 C   -0.670450   -8.624504  -13.739752
 C   -0.071041   -7.385278  -13.909633
 C   -0.935313   -9.074213  -12.450802
 C   -0.586316   -8.308197  -11.352593
 C    0.001300   -7.069085  -11.521478
 C    0.245330   -6.595579  -12.806369
 N    0.839462   -5.339268  -12.960137
 N    1.773839   -4.923477  -12.085114
 C    2.161021   -3.729657  -12.481896
 C    3.223561   -2.948421  -11.766603
 C    4.405252   -2.741251  -12.721830
 C    3.688458   -3.712194  -10.526486
 C    2.651352   -1.587398  -11.353039
 C    1.447483   -3.330568  -13.633356
 C    0.608072   -4.382537  -13.907619
 N   -0.387395   -4.539737  -14.860620
 C   -0.559315   -3.704091  -15.947094
 O    0.186123   -2.790977  -16.204022
 N   -1.662809   -4.063763  -16.684346
 C   -2.155093   -3.469577  -17.851833
 C   -1.558390   -2.370482  -18.462214
 C   -2.093496   -1.830048  -19.614103
 C   -3.302140   -4.016852  -18.423116
 C   -3.836688   -3.477706  -19.573596
 C   -3.240545   -2.374943  -20.186999
 N   -3.835833   -1.889202  -21.345697
 C   -5.415931   -1.283689  -23.733841
 C   -6.115974   -0.910308  -24.865601
 N   -7.252902   -1.587040  -25.254162
 C   -5.699773    0.224807  -25.592408
 C   -4.615614    0.951194  -25.195698
 C   -2.171395    0.942619  -22.626996
 H   -2.099033   -9.628763  -14.973172
 H   -0.691030   -9.015043  -15.850751
 H   -0.552796  -10.454404  -14.836020
 H    0.194146   -7.055647  -14.904345
 H   -1.401570  -10.038467  -12.311717
 H   -0.777957   -8.678035  -10.356577
 H    0.288688   -6.458966  -10.680798
 H    4.818831   -3.701132  -13.023130
 H    4.087977   -2.207966  -13.614397
 H    5.187088   -2.165038  -12.231627
 H    2.857502   -3.860103   -9.842442
 H    4.069064   -4.689417  -10.808927
 H    4.472939   -3.158266  -10.015536
 H    2.329759   -1.023664  -12.224849
 H    1.796013   -1.720656  -10.694062
 H    3.407254   -1.008981  -10.826163
 H    1.524524   -2.421988  -14.189502
 H   -1.049795   -5.280716  -14.680067
 H   -2.210479   -4.848138  -16.359717
 H   -0.671728   -1.941538  -18.027929
 H   -1.631345   -0.978986  -20.083565
 H   -3.779939   -4.871110  -17.962382
 H   -4.728185   -3.916666  -20.001294
 H   -4.659905   -2.399158  -21.629099
 H   -5.754335   -2.159964  -23.195654
 H   -7.368355   -2.523727  -24.903596
 H   -7.550909   -1.454229  -26.206448
 H   -6.257618    0.507495  -26.474026
 H   -4.283501    1.816630  -25.746290
 H   -1.304348    1.522125  -22.335120
