68 
3gcu_ligand_aiqm1.xyz
 C   12.021310    1.037856    3.688095
 C   13.428456    1.028367    3.846949
 C   14.051840    1.962508    4.650034
 N   15.444285    2.011457    4.758784
 C   13.264281    2.932092    5.321458
 C   11.901753    2.949461    5.177205
 C   11.248187    2.001604    4.358582
 N    9.884220    2.055565    4.248017
 C    9.349091    1.149148    3.473444
 N    9.970270    0.165829    2.769578
 C   11.280538    0.110441    2.874047
 N   11.975141   -0.855261    2.196495
 C   11.547423   -1.886742    1.337319
 C   12.571125   -2.697694    0.832294
 C   10.215341   -2.123782    0.983983
 C    9.940865   -3.182249    0.121600
 C   10.944919   -3.995237   -0.386549
 C   12.272787   -3.751481   -0.026965
 N   13.260585   -4.602187   -0.564290
 C   14.617058   -4.568960   -0.344789
 O   15.185533   -3.778838    0.383628
 N   15.282901   -5.539881   -1.070313
 C   16.642798   -5.796681   -0.939687
 C   17.611259   -5.280397   -0.113885
 C   18.781643   -6.010103   -0.451662
 C   20.174947   -5.898230    0.118485
 C   20.566790   -7.248491    0.737071
 C   21.148334   -5.559916   -1.020043
 C   20.244495   -4.808208    1.190649
 N   18.537245   -6.908310   -1.401323
 N   17.220691   -6.754210   -1.714001
 C   16.624571   -7.555760   -2.715034
 C   16.861777   -8.930298   -2.720629
 C   16.281936   -9.725435   -3.700316
 C   15.458158   -9.174250   -4.689525
 C   14.830145  -10.045964   -5.743879
 C   15.249104   -7.794447   -4.676837
 C   15.833635   -6.982238   -3.706544
 H   14.052621    0.301089    3.337910
 H   15.907796    1.141913    4.545334
 H   15.775867    2.400722    5.627009
 H   13.755929    3.671076    5.944886
 H   11.291533    3.685804    5.681804
 H    8.271787    1.171012    3.368566
 H   12.968937   -0.826578    2.319612
 H   13.594783   -2.502918    1.112229
 H    9.425442   -1.503185    1.369597
 H    8.915819   -3.380448   -0.163305
 H   10.702004   -4.812784   -1.055836
 H   12.916507   -5.289194   -1.211961
 H   14.742991   -6.249559   -1.537302
 H   17.493595   -4.494046    0.607330
 H   19.894708   -7.507254    1.557930
 H   20.519826   -8.041992   -0.011029
 H   21.586374   -7.198214    1.128245
 H   21.111162   -6.326417   -1.795631
 H   20.893946   -4.599514   -1.472385
 H   22.169736   -5.501336   -0.634032
 H   19.978117   -3.833216    0.777224
 H   19.567852   -5.027871    2.019615
 H   21.262180   -4.747595    1.585168
 H   17.522364   -9.349637   -1.973961
 H   16.477484  -10.791115   -3.699643
 H   15.593656  -10.574765   -6.316044
 H   14.181450  -10.799788   -5.293842
 H   14.234655   -9.451254   -6.437115
 H   14.635753   -7.339738   -5.446030
 H   15.689791   -5.908272   -3.725889
