68 
3gcv_ligand_xtb.xyz
 C   -3.853196    3.449875  -19.627969
 C   -3.008629    2.741913  -18.733491
 C   -3.695585    1.992710  -17.713819
 N   -5.012626    1.991838  -17.643505
 N   -5.202429    3.418318  -19.517037
 C    2.286435   -5.820091   -7.229091
 C    1.699512   -5.522688   -8.574251
 C    2.243876   -4.515796   -9.358050
 C    0.609714   -6.234674   -9.060458
 C    0.097801   -5.965524  -10.317848
 C    0.649017   -4.970943  -11.105118
 C    1.717557   -4.225624  -10.611013
 N    2.307899   -3.203897  -11.362961
 N    3.638797   -3.013222  -11.309965
 C    3.911683   -2.010032  -12.117290
 C    5.310653   -1.518185  -12.346147
 C    5.378845   -0.024644  -12.006140
 C    6.288349   -2.294125  -11.463454
 C    5.667476   -1.727015  -13.822953
 C    2.729759   -1.504846  -12.701250
 C    1.723607   -2.289823  -12.192261
 N    0.345454   -2.221626  -12.332284
 C   -0.302446   -1.453270  -13.277675
 O    0.280488   -0.805241  -14.114757
 N   -1.667008   -1.537487  -13.144848
 C   -2.653618   -0.915994  -13.919595
 C   -2.351263   -0.109564  -15.004364
 C   -3.986958   -1.130615  -13.573263
 C   -4.990646   -0.535830  -14.313818
 C   -4.700384    0.272301  -15.397582
 C   -3.370031    0.487943  -15.747153
 N   -2.969268    1.278965  -16.814266
 C   -1.619021    2.822227  -18.895337
 C   -1.065976    3.573491  -19.915652
 N    0.295472    3.595914  -20.122282
 C   -1.916553    4.269863  -20.800344
 C   -3.272127    4.210888  -20.660744
 C   -5.689175    2.704426  -18.548119
 H    3.332508   -6.104431   -7.331060
 H    2.244114   -4.937002   -6.593151
 H    1.751025   -6.628871   -6.738811
 H    3.094836   -3.948009   -9.015457
 H    0.168597   -7.016196   -8.459630
 H   -0.730839   -6.545651  -10.696680
 H    0.283359   -4.810842  -12.108601
 H    4.700025    0.545286  -12.635271
 H    5.104457    0.139797  -10.966350
 H    6.389280    0.347947  -12.160394
 H    6.045246   -2.148063  -10.414745
 H    6.224734   -3.356807  -11.678360
 H    7.306524   -1.954883  -11.641064
 H    5.621716   -2.783991  -14.075538
 H    4.973717   -1.189807  -14.464839
 H    6.674795   -1.366401  -14.020198
 H    2.613932   -0.696588  -13.389700
 H   -0.188196   -2.739071  -11.648253
 H   -2.033786   -2.104193  -12.393451
 H   -1.318938    0.051926  -15.267643
 H   -4.231046   -1.759510  -12.728582
 H   -6.021467   -0.705091  -14.041168
 H   -5.479849    0.736714  -15.975292
 H   -1.966929    1.321431  -16.932460
 H   -0.945180    2.298420  -18.230190
 H    0.880401    3.316608  -19.352158
 H    0.657532    4.351751  -20.679339
 H   -1.471352    4.853070  -21.594135
 H   -3.932150    4.741260  -21.328291
 H   -6.767324    2.672383  -18.448637
