51 
3ge7_ligand_aiqm1.xyz
 C   18.096304   16.571306   22.927211
 O   19.077929   16.759842   23.622765
 N   16.909370   16.112697   23.482443
 C   15.758874   15.913873   22.756764
 N   14.655707   15.547372   23.507163
 N   15.653968   16.089888   21.490223
 C   16.788633   16.537317   20.810840
 C   16.679472   16.732225   19.425218
 C   15.393649   16.448983   18.697632
 C   15.170950   14.939803   18.518067
 N   13.971784   14.568627   17.773575
 C   12.728936   14.989106   18.406646
 C   11.520242   14.390526   17.710809
 C   11.339782   14.828680   16.255840
 C    9.890395   14.445432   15.961218
 C    9.134315   14.839026   17.242926
 C   10.185804   14.772052   18.379388
 C   17.819355   17.157992   18.756146
 N   17.977704   17.410305   17.395737
 C   19.225719   17.772713   17.270030
 N   19.860056   18.038518   16.089799
 C   19.029602   18.155879   14.898376
 N   19.917406   17.828868   18.462124
 C   19.032371   17.400119   19.444909
 C   19.155895   17.222866   20.803648
 C   18.013521   16.780079   21.479886
 H   16.895216   16.038772   24.488362
 H   13.888442   15.268895   22.914906
 H   14.843385   14.875382   24.232973
 H   14.560411   16.871844   19.264288
 H   15.416121   16.931515   17.716812
 H   16.032922   14.512880   17.997221
 H   15.122447   14.463253   19.504057
 H   14.021791   14.959680   16.838605
 H   12.748623   14.647767   19.446710
 H   12.613586   16.088572   18.435111
 H   11.627022   13.298426   17.718772
 H   11.466800   15.915793   16.177644
 H   12.051330   14.353503   15.579883
 H    9.484600   14.924134   15.069279
 H    9.834221   13.363874   15.809197
 H    8.745644   15.854162   17.151263
 H    8.282817   14.184377   17.427292
 H    9.913556   14.061115   19.160614
 H   10.282805   15.750354   18.856774
 H   20.592269   18.726228   16.166134
 H   18.279496   18.945064   14.993683
 H   19.677613   18.354124   14.047355
 H   18.510344   17.214273   14.741109
 H   20.914971   17.906823   18.545581
 H   20.067824   17.399097   21.356993
