16 
3gf2_ligand_xtb.xyz
 C    3.082013   -3.448256  -25.264160
 O    3.399857   -4.515120  -25.700013
 O    3.488404   -2.306477  -25.862616
 C    2.262627   -3.247976  -24.030315
 C    1.140404   -4.054136  -23.790926
 C    0.427357   -3.891342  -22.606058
 C    0.820505   -2.954473  -21.669803
 C    1.927890   -2.155801  -21.903560
 C    2.638201   -2.303026  -23.080220
 O    0.759619   -4.932472  -24.738367
 H    3.137321   -1.519897  -25.424819
 H   -0.439650   -4.512142  -22.422889
 H    0.259484   -2.847858  -20.753830
 H    2.238198   -1.426686  -21.171731
 H    3.520433   -1.700179  -23.249088
 H    0.002639   -5.450261  -24.436706
