16 
3gf2_ligand_ani-2x.xyz
 C    3.082638   -3.437553  -25.283248
 O    3.374233   -4.500248  -25.756287
 O    3.531045   -2.289312  -25.851092
 C    2.260288   -3.251263  -24.039510
 C    1.142715   -4.057173  -23.787211
 C    0.426606   -3.903280  -22.596604
 C    0.824507   -2.961816  -21.656676
 C    1.937491   -2.160126  -21.891621
 C    2.637088   -2.305811  -23.082150
 O    0.771940   -4.955866  -24.729239
 H    3.111163   -1.523497  -25.434685
 H   -0.445486   -4.528855  -22.411332
 H    0.259829   -2.856624  -20.734163
 H    2.249495   -1.419992  -21.160256
 H    3.522615   -1.697827  -23.264466
 H   -0.020867   -5.416857  -24.426560
