69 
3gjs_ligand_aiqm1.xyz
 C    0.158446   -3.283160    1.532540
 O    1.296051   -3.743969    1.614142
 C   -0.825761   -3.368551    2.673036
 N   -0.292647   -2.682146    0.408022
 C    0.497233   -2.645369   -0.812688
 C    1.488089   -1.455827   -0.830038
 O    1.578677   -0.681064   -1.778554
 C   -0.380923   -2.701053   -2.070478
 C   -1.663516   -1.921141   -1.955297
 C   -2.872983   -2.597372   -1.789147
 C   -1.673090   -0.521744   -1.943016
 C   -4.064156   -1.907896   -1.576525
 C   -2.855871    0.181610   -1.733780
 C   -4.036722   -0.520720   -1.528048
 O   -5.145089    0.212035   -1.165491
 N    2.253937   -1.381064    0.274319
 C    3.372131   -0.455413    0.470569
 C    2.841660    0.979752    0.641580
 O    2.762103    1.473664    1.764129
 C    4.492662   -0.582344   -0.574517
 C    5.645666    0.356139   -0.221823
 C    4.998628   -2.020719   -0.656214
 N    2.510834    1.642096   -0.483360
 C    1.937817    2.983751   -0.451717
 C    0.423072    2.895732   -0.214783
 O   -0.402772    3.297460   -1.026542
 C    2.254183    3.722584   -1.737428
 N    0.075383    2.312760    0.955814
 C   -1.329164    2.157551    1.294712
 C   -1.877849    3.374821    2.032123
 O   -1.661807    4.577076    1.318943
 C   -1.573965    0.849988    2.075923
 C   -2.735677    0.083854    1.509523
 O   -3.817774    0.857786    1.367919
 O   -2.710836   -1.089237    1.211455
 H   -1.493853   -2.508075    2.699384
 H   -0.276185   -3.461842    3.605989
 H   -1.429150   -4.266434    2.533544
 H   -1.196888   -2.222678    0.434139
 H    1.135057   -3.531083   -0.791047
 H    0.208471   -2.337934   -2.910359
 H   -0.628965   -3.749927   -2.254725
 H   -2.887150   -3.681171   -1.795543
 H   -0.743703    0.018699   -2.086500
 H   -4.991444   -2.450604   -1.418337
 H   -2.862165    1.263297   -1.700250
 H   -5.930310   -0.333302   -1.248670
 H    2.162335   -2.153646    0.922489
 H    3.790226   -0.702919    1.445683
 H    4.093793   -0.305110   -1.549316
 H    5.338248    1.403146   -0.200327
 H    6.450373    0.254504   -0.950846
 H    6.048058    0.102338    0.761822
 H    5.823257   -2.087053   -1.366933
 H    5.366550   -2.355069    0.317206
 H    4.218202   -2.709107   -0.983863
 H    2.356654    1.087603   -1.317529
 H    2.379060    3.491318    0.406810
 H    1.841113    4.728084   -1.702127
 H    3.332821    3.779121   -1.878754
 H    1.804534    3.209571   -2.586396
 H    0.808181    2.111211    1.625789
 H   -1.853499    2.105965    0.339605
 H   -1.387830    3.481543    3.006409
 H   -2.948211    3.208058    2.200779
 H   -1.604090    4.365994    0.379496
 H   -0.697684    0.199537    2.048266
 H   -1.794487    1.092212    3.119996
 H   -4.482550    0.401575    0.825544
