69 
3gjs_ligand_ani-2x.xyz
 C    0.226921   -3.245339    1.765920
 O    1.374853   -3.691596    1.809625
 C   -0.675196   -3.298004    2.973771
 N   -0.274430   -2.660736    0.652436
 C    0.443687   -2.684667   -0.616812
 C    1.512195   -1.569900   -0.732320
 O    1.609221   -0.866563   -1.740181
 C   -0.503741   -2.718052   -1.826240
 C   -1.622569   -1.698358   -1.817151
 C   -2.921948   -2.081262   -1.476472
 C   -1.395474   -0.359236   -2.148304
 C   -3.958798   -1.157454   -1.412744
 C   -2.419879    0.574438   -2.094115
 C   -3.696109    0.180549   -1.692261
 O   -4.646540    1.149441   -1.585179
 N    2.346649   -1.471485    0.321504
 C    3.413506   -0.480137    0.455967
 C    2.771058    0.909482    0.585564
 O    2.556136    1.396406    1.693979
 C    4.527674   -0.607068   -0.606760
 C    5.605463    0.454775   -0.380611
 C    5.139496   -2.009470   -0.584848
 N    2.439557    1.534066   -0.570068
 C    1.810534    2.846698   -0.555946
 C    0.294261    2.720712   -0.326216
 O   -0.522636    3.114520   -1.164650
 C    2.108960    3.607506   -1.835530
 N   -0.077390    2.145621    0.833270
 C   -1.474135    1.853982    1.112524
 C   -2.170389    3.064466    1.744109
 O   -2.002042    4.229239    0.972540
 C   -1.578087    0.572632    1.947945
 C   -2.826899   -0.240544    1.674544
 O   -3.929229    0.510670    1.498140
 O   -2.860438   -1.450246    1.614848
 H   -1.712322   -3.063182    2.734002
 H   -0.303741   -2.573157    3.707412
 H   -0.589681   -4.289982    3.426025
 H   -1.219485   -2.284965    0.702392
 H    1.018107   -3.621890   -0.605349
 H    0.110397   -2.592858   -2.723799
 H   -0.944269   -3.720473   -1.873698
 H   -3.119173   -3.122872   -1.229253
 H   -0.398972   -0.061041   -2.459526
 H   -4.961270   -1.480006   -1.130961
 H   -2.237686    1.622697   -2.313081
 H   -5.447248    0.756905   -1.216239
 H    2.298496   -2.212609    1.014726
 H    3.853323   -0.656051    1.443625
 H    4.068074   -0.452575   -1.588189
 H    5.198620    1.467158   -0.463408
 H    6.407786    0.350768   -1.118983
 H    6.053669    0.345021    0.615197
 H    5.944839   -2.080470   -1.323608
 H    5.571780   -2.233881    0.398855
 H    4.399929   -2.781321   -0.820829
 H    2.277567    0.929105   -1.372839
 H    2.234117    3.365641    0.313585
 H    1.671445    4.608561   -1.794383
 H    3.190571    3.695992   -1.972878
 H    1.677904    3.093151   -2.700126
 H    0.643265    1.902524    1.509831
 H   -1.955279    1.689467    0.145198
 H   -1.740250    3.262004    2.735972
 H   -3.233439    2.826304    1.879298
 H   -1.835802    3.962886    0.052944
 H   -0.725473   -0.083861    1.744867
 H   -1.552391    0.813275    3.019439
 H   -4.652906   -0.107660    1.300236
