31 
3gqz_ligand_ani-2x.xyz
 O   -4.815207   -0.281287    1.956459
 C   -4.476083   -0.186705    0.792227
 C   -5.504707   -0.111066   -0.315466
 C   -3.027714   -0.142829    0.427225
 C   -2.582268   -0.036388   -0.890964
 C   -1.231664   -0.000791   -1.200812
 C   -2.079057   -0.212826    1.448530
 C   -0.727184   -0.170984    1.156508
 C   -0.284932   -0.065369   -0.170268
 N    1.095932   -0.005160   -0.438499
 C    1.696147   -0.292578   -1.657163
 O    1.129620   -0.602824   -2.684994
 C    2.075192    0.260026    0.614744
 C    3.353494    0.593211   -0.156579
 C    3.197850   -0.182022   -1.470257
 C    4.613265    0.280183    0.624559
 O    4.663910   -0.101960    1.768907
 O    5.723434    0.481609   -0.115252
 H   -5.397003    0.820652   -0.882050
 H   -6.499691   -0.155663    0.129782
 H   -5.379254   -0.942009   -1.018701
 H   -3.298447    0.014709   -1.707356
 H   -0.911749    0.064401   -2.231304
 H   -2.421803   -0.295460    2.475606
 H   -0.009349   -0.226162    1.968518
 H    1.755115    1.089557    1.250718
 H    2.230872   -0.620110    1.249193
 H    3.367837    1.664900   -0.377662
 H    3.663644    0.299866   -2.330316
 H    3.605364   -1.196839   -1.394265
 H    6.474535    0.259816    0.460133
