22 
3grj_ligand_xtb.xyz
 O   19.296199    8.982140   28.735616
 C   18.870709    7.721567   28.618390
 O   18.255484    7.329978   27.653541
 C   19.219893    6.876396   29.759587
 C   18.910385    5.539793   29.908046
 N   19.427000    5.173817   31.104588
 C   20.029982    6.280172   31.648633
 N   19.911392    7.309017   30.848158
 C   20.704852    6.306255   32.931378
 C   21.275021    7.507707   33.356967
 C   21.927555    7.579052   34.571063
 C   22.022042    6.456101   35.378774
 C   21.459299    5.260589   34.964294
 C   20.803984    5.181160   33.749449
 H   19.034806    9.489614   27.951199
 H   18.380906    4.872225   29.261211
 H   21.188625    8.367056   32.711719
 H   22.365510    8.512332   34.892242
 H   22.532520    6.511363   36.328672
 H   21.531090    4.383804   35.591222
 H   20.372810    4.236958   33.447834
 H   19.372937    4.254903   31.512417
