22 
3grj_ligand_aiqm1.xyz
 O   19.248502    8.988200   28.678619
 C   18.862245    7.706258   28.583869
 O   18.261884    7.265841   27.630017
 C   19.238300    6.893897   29.746914
 C   18.951943    5.555132   29.879191
 N   19.473960    5.205295   31.089142
 C   20.048860    6.320717   31.641191
 N   19.917962    7.358911   30.843536
 C   20.714046    6.332190   32.945187
 C   21.265454    7.532631   33.407113
 C   21.903274    7.580828   34.638126
 C   21.998564    6.432676   35.422580
 C   21.451362    5.234789   34.967586
 C   20.811391    5.182109   33.734668
 H   18.945770    9.409211   27.863200
 H   18.440988    4.870585   29.228974
 H   21.178436    8.408019   32.780710
 H   22.326971    8.512412   34.988284
 H   22.495659    6.469161   36.382553
 H   21.522913    4.340799   35.573147
 H   20.392383    4.240930   33.398653
 H   19.442134    4.291410   31.501741
