22 
3grj_ligand_ani-2x.xyz
 O   19.257062    8.994331   28.691343
 C   18.853353    7.719116   28.592074
 O   18.241851    7.288186   27.639169
 C   19.225299    6.891998   29.754318
 C   18.924713    5.562594   29.883587
 N   19.448162    5.196074   31.092769
 C   20.038446    6.307685   31.640600
 N   19.916010    7.347577   30.847382
 C   20.715111    6.316372   32.945499
 C   21.278432    7.516578   33.390285
 C   21.928161    7.576140   34.615595
 C   22.023424    6.438003   35.412018
 C   21.464373    5.239624   34.974692
 C   20.813559    5.177356   33.748708
 H   18.955589    9.427148   27.876443
 H   18.398008    4.889535   29.224063
 H   21.193173    8.393985   32.753553
 H   22.361982    8.514605   34.950465
 H   22.532050    6.485019   36.371032
 H   21.534592    4.346719   35.590840
 H   20.385013    4.229116   33.429718
 H   19.404637    4.274239   31.500846
