29 
3gs7_ligand_aiqm1.xyz
 C   21.880656   39.568717    9.096028
 O   20.705250   40.303793    9.416072
 C   20.832369   41.650478    9.161075
 C   21.102461   42.510635   10.217862
 C   21.202113   43.878767    9.988052
 C   21.049864   44.380008    8.697841
 C   20.785450   43.518709    7.638020
 C   20.671283   42.137481    7.852688
 C   20.327345   41.163614    6.799949
 N   20.581320   41.162178    5.542876
 O   21.329278   42.277756    5.144130
 C   21.660664   42.130941    3.771524
 C   20.435830   42.314928    2.881623
 C   20.805326   42.319111    1.416178
 O   19.755378   42.416085    0.563777
 O   21.921538   42.250559    0.987008
 H   22.125297   39.661722    8.034356
 H   22.726060   39.925105    9.691683
 H   21.672614   38.528389    9.335478
 H   21.220213   42.094946   11.210718
 H   21.406297   44.550242   10.811550
 H   21.136003   45.443349    8.515811
 H   20.663388   43.910115    6.637787
 H   19.773494   40.290359    7.124658
 H   22.115911   41.155892    3.596022
 H   22.398184   42.903493    3.565883
 H   19.943314   43.261190    3.124288
 H   19.712139   41.515932    3.067283
 H   18.935661   42.455407    1.064181
