32 
3gsg_ligand_aiqm1.xyz
 O   -0.744671   -2.179211   -0.615186
 C   -0.414050   -1.216873    0.036066
 N   -1.308556   -0.267988    0.519672
 C   -2.731249   -0.313519    0.242228
 C   -2.999454   -0.339009   -1.251582
 O   -2.041212    0.308736   -1.949295
 O   -3.973725   -0.815394   -1.764494
 C   -3.435024   -1.446778    0.974478
 C    0.985105   -0.791988    0.448470
 C    0.798185    0.568538    1.141634
 C   -0.696381    0.829630    1.107826
 O   -1.286928    1.807329    1.502742
 C    1.888332   -0.461737   -0.759436
 C    3.285271   -0.147631   -0.192678
 C    3.088207    1.235951    0.495027
 C    1.402640    0.942130   -1.154549
 C    1.599431    1.541334    0.248124
 H   -3.116373    0.650444    0.586556
 H   -2.321308    0.272660   -2.872315
 H   -4.499453   -1.420952    0.757620
 H   -3.039208   -2.410114    0.659092
 H   -3.280641   -1.328790    2.046583
 H    1.406731   -1.571104    1.082606
 H    1.123327    0.601599    2.181571
 H    1.870772   -1.231732   -1.526282
 H    4.012207   -0.077774   -1.001792
 H    3.634016   -0.918214    0.495889
 H    3.337492    1.222226    1.556573
 H    3.710564    1.995464    0.021942
 H    2.057166    1.407312   -1.891231
 H    0.373804    0.975124   -1.518787
 H    1.314985    2.580533    0.393127
