27 
3gvb_ligand_xtb.xyz
 O   -0.714072   -1.662862    1.909934
 C    0.140292   -1.018520    1.324797
 C    1.614238   -1.010949    1.688958
 N   -0.046402   -0.201279    0.270011
 C    1.188681    0.442578   -0.150351
 C    2.293705   -0.436131    0.440558
 C    3.528146    0.353567    0.816391
 O    4.628559   -0.395695    0.743147
 O    3.533874    1.501300    1.167622
 C   -1.263948    0.134357   -0.378745
 C   -2.321802   -0.774992   -0.554186
 O   -2.324005   -2.046690   -0.110595
 C   -3.441535   -0.366874   -1.281253
 C   -3.536897    0.898489   -1.817173
 C   -2.506044    1.801805   -1.620693
 C   -1.385759    1.416616   -0.912094
 H    1.957363   -2.007085    1.960731
 H    1.746256   -0.352151    2.551451
 H    1.274420    1.450619    0.273873
 H    1.229737    0.504321   -1.239396
 H    2.581204   -1.241498   -0.238259
 H    5.411094    0.107444    1.021163
 H   -1.784287   -2.120118    0.709265
 H   -4.229084   -1.091960   -1.412952
 H   -4.413444    1.182222   -2.378869
 H   -2.568717    2.802726   -2.018423
 H   -0.591573    2.130861   -0.764713
