43 
3gxl_ligand_ani-2x.xyz
 C   11.009777   62.797969    5.913817
 C   12.195082   63.524852    5.333317
 C   12.449368   63.545393    3.961029
 C   13.562431   64.234638    3.494082
 C   14.383796   64.882245    4.405461
 C   14.044123   64.804217    5.756871
 N   12.981166   64.141844    6.214119
 C   14.891790   65.485123    6.765724
 N   15.882035   66.240061    6.224368
 C   16.704813   66.857943    7.038878
 N   17.736808   67.591410    6.521371
 C   18.049578   67.812093    5.160733
 C   19.423565   67.998665    4.842115
 C   19.849567   68.245338    3.557423
 C   18.859260   68.325963    2.562124
 N   18.926169   68.552481    1.220323
 N   17.710819   68.547330    0.631510
 C   16.846262   68.316512    1.596488
 C   17.496352   68.164547    2.861764
 C   17.077371   67.902686    4.181713
 C   16.538212   66.764790    8.472784
 C   17.347193   67.415634    9.437738
 C   17.097928   67.250452   10.779477
 C   16.029738   66.433163   11.209054
 C   15.227493   65.800535   10.294766
 C   15.461583   65.955718    8.905687
 N   14.631988   65.311934    8.032853
 H   11.351736   62.043335    6.629115
 H   10.369859   63.502725    6.454217
 H   10.416900   62.306669    5.137625
 H   11.782919   63.026925    3.276692
 H   13.786367   64.265514    2.430180
 H   15.269855   65.432168    4.095191
 H   18.446921   67.879146    7.174907
 H   20.159946   67.930356    5.639542
 H   20.901457   68.376949    3.324212
 H   19.747903   68.712670    0.659203
 H   15.786629   68.262830    1.378422
 H   16.037030   67.773972    4.450707
 H   18.165885   68.063971    9.130789
 H   17.724611   67.749096   11.513776
 H   15.843076   66.308840   12.272630
 H   14.396641   65.169298   10.596200
