43 
3gxl_ligand_aiqm1.xyz
 C   10.855699   63.000350    5.888240
 C   12.132849   63.567695    5.335309
 C   12.474437   63.431286    3.987683
 C   13.665793   63.982667    3.530424
 C   14.483541   64.654483    4.430119
 C   14.066047   64.737487    5.759893
 N   12.920419   64.211052    6.208668
 C   14.925500   65.440371    6.757118
 N   15.876042   66.255822    6.209526
 C   16.669025   66.893015    7.040692
 N   17.641919   67.710432    6.526298
 C   17.987657   67.900200    5.166076
 C   19.365568   68.070355    4.870813
 C   19.820357   68.304658    3.590982
 C   18.855602   68.369844    2.575815
 N   18.951993   68.582306    1.232401
 N   17.744689   68.570335    0.623106
 C   16.857003   68.347070    1.573166
 C   17.486588   68.207073    2.847763
 C   17.038845   67.977674    4.162139
 C   16.544422   66.763977    8.465613
 C   17.332905   67.449062    9.419113
 C   17.129087   67.243535   10.761952
 C   16.129559   66.346550   11.199761
 C   15.346216   65.680357   10.289616
 C   15.536650   65.882341    8.901992
 N   14.724287   65.211881    8.028910
 H   11.074596   62.340066    6.727570
 H   10.222860   63.803177    6.269192
 H   10.310091   62.446874    5.123083
 H   11.811525   62.900691    3.315316
 H   13.950865   63.890348    2.490593
 H   15.419570   65.103371    4.133955
 H   18.341256   68.005331    7.180618
 H   20.085024   68.012771    5.681898
 H   20.876002   68.427245    3.390820
 H   19.772872   68.737155    0.678741
 H   15.810340   68.298065    1.320611
 H   15.993954   67.828795    4.392086
 H   18.092606   68.159422    9.111578
 H   17.732609   67.774544   11.486211
 H   15.979640   66.191904   12.260539
 H   14.565493   64.996365   10.593003
