36 
3gy2_ligand_dft.xyz
 C   -2.309745   -0.833479    0.112765
 C   -3.444380   -1.642438    0.087483
 C   -4.711127   -1.074480    0.025646
 C   -4.862283    0.312960   -0.008266
 C   -3.719583    1.120174    0.037367
 C   -2.455460    0.559763    0.094784
 C   -6.204144    0.962137   -0.074923
 N   -6.334549    2.157715    0.361404
 N   -7.219028    0.156612   -0.578013
 N   -1.073067   -1.523059    0.172166
 N   -0.067263   -0.777791    0.102524
 N    1.071887   -1.462462    0.172401
 C    2.316424   -0.841291    0.104629
 C    2.441357    0.542672   -0.054649
 C    3.704403    1.110408   -0.112807
 C    4.860594    0.330385   -0.021440
 C    4.719592   -1.051561    0.128151
 C    3.463184   -1.635120    0.196598
 C    6.207641    0.971266   -0.072846
 N    6.520844    2.108094    0.425230
 N    7.187714    0.206701   -0.684839
 H   -3.315308   -2.719267    0.124076
 H   -5.584660   -1.719321    0.040386
 H   -3.850044    2.196932    0.032019
 H   -1.575304    1.191684    0.127969
 H   -7.290854    2.496028    0.236554
 H   -8.086977    0.630603   -0.787126
 H   -6.950466   -0.502342   -1.295550
 H    0.992272   -2.470643    0.276155
 H    1.552720    1.156193   -0.137625
 H    3.795304    2.183848   -0.254270
 H    5.606020   -1.672187    0.215280
 H    3.370186   -2.709990    0.328323
 H    5.736840    2.490239    0.952247
 H    8.054766    0.713975   -0.808089
 H    6.900915   -0.314808   -1.501399
