36 
3gy2_ligand_aiqm1.xyz
 C   -1.312847   15.238273   18.166163
 C   -2.316690   14.272857   18.109491
 C   -2.551149   13.577167   16.929346
 C   -1.784591   13.846276   15.792887
 C   -0.791186   14.828084   15.852846
 C   -0.547600   15.521025   17.028306
 C   -2.014779   13.115980   14.513950
 N   -1.630143   13.641785   13.413627
 N   -2.689026   11.908476   14.645244
 N   -1.148204   15.885651   19.418759
 N   -0.240883   16.746979   19.399126
 N   -0.085798   17.344908   20.572535
 C    0.848392   18.356919   20.764163
 C    1.687349   18.781128   19.728748
 C    2.601002   19.797655   19.969322
 C    2.710627   20.396449   21.228750
 C    1.867966   19.955696   22.252747
 C    0.939031   18.949774   22.024904
 C    3.691280   21.488805   21.466032
 N    4.051793   22.377822   20.619286
 N    4.191423   21.549928   22.756423
 H   -2.908381   14.084762   18.996022
 H   -3.353162   12.852274   16.881530
 H   -0.225511   15.041502   14.957039
 H    0.222206   16.279953   17.064135
 H   -1.835510   13.033657   12.622547
 H   -2.670908   11.330047   13.822960
 H   -2.510206   11.392641   15.490822
 H   -0.704176   17.062964   21.317113
 H    1.617597   18.321072   18.753184
 H    3.254582   20.121741   19.168071
 H    1.928290   20.422852   23.226865
 H    0.279432   18.622125   22.819400
 H    3.531206   22.286207   19.751847
 H    4.944811   22.212539   22.847004
 H    4.352962   20.668230   23.214004
