49 
3gy3_ligand_xtb.xyz
 C   -9.458787   20.838003   49.954744
 C   -9.090860   19.820953   49.078124
 C   -8.461105   18.689936   49.560918
 C   -8.175069   18.543871   50.913515
 C   -8.556137   19.559926   51.788561
 C   -9.189495   20.688313   51.316991
 C  -10.417610   22.203825   48.245548
 C  -11.127162   23.550956   48.147082
 C   -7.497508   17.317200   51.373658
 C  -12.465891   23.529998   48.881378
 C  -13.777842   25.571656   51.804061
 C  -14.985513   26.102779   51.361242
 C  -16.085332   26.109405   52.199690
 C  -16.021174   25.578584   53.481867
 C  -14.809633   25.045301   53.920106
 C  -13.705839   25.047497   53.097856
 C  -12.599740   25.920459   49.740341
 C  -13.209337   24.864213   48.813281
 C  -17.212219   25.608613   54.366802
 O  -10.075308   21.994050   49.599722
 O  -12.618679   25.529522   51.096644
 N   -7.622325   16.260818   50.682424
 N   -6.808767   17.410017   52.560466
 N  -18.079792   26.537204   54.427819
 N  -17.327089   24.553950   55.231165
 H   -9.290142   19.900398   48.020952
 H   -8.179682   17.892244   48.892384
 H   -8.386603   19.460032   52.850754
 H   -9.494020   21.477287   51.986819
 H   -9.511210   22.210163   47.623548
 H  -11.080474   21.401236   47.893020
 H  -11.281461   23.787417   47.092285
 H  -10.474678   24.308857   48.580686
 H  -12.290860   23.273044   49.926898
 H  -13.095084   22.751762   48.443141
 H  -15.085330   26.520116   50.371415
 H  -17.018706   26.520168   51.839884
 H  -14.730936   24.649697   54.921852
 H  -12.761077   24.648402   53.432333
 H  -13.102404   26.886306   49.604915
 H  -11.539729   26.055347   49.512687
 H  -14.249147   24.700453   49.103195
 H  -13.198036   25.250365   47.792084
 H   -7.129981   15.452690   51.056512
 H   -6.219845   16.634152   52.818277
 H   -6.514541   18.313075   52.889894
 H  -17.885469   27.329782   53.824929
 H  -18.195712   24.521641   55.740182
 H  -16.931860   23.670321   54.958650
