17 
3gy7_ligand_xtb.xyz
 C   -1.796893   14.123293   16.379596
 C   -1.286062   13.457307   17.490163
 C   -0.989735   14.152295   18.646897
 C   -1.193687   15.521634   18.706709
 C   -1.685645   16.193266   17.600528
 C   -1.988012   15.500224   16.441807
 C   -2.104285   13.346986   15.159967
 N   -3.074790   13.867662   14.338397
 N   -1.437279   12.293372   14.932781
 H   -1.126480   12.393331   17.418510
 H   -0.597551   13.627305   19.505554
 H   -0.963191   16.066017   19.610812
 H   -1.832160   17.263136   17.638713
 H   -2.345981   16.040769   15.577117
 H   -3.403724   13.293311   13.578811
 H   -3.733620   14.530823   14.708288
 H   -1.693503   11.807070   14.076551
