62 
3h0j_ligand_ani-2x.xyz
 C    6.396009   32.205972   25.652538
 C    7.639581   31.954856   24.998849
 C    8.452525   32.982562   24.584137
 C    8.080922   34.322694   24.813563
 C    6.924813   34.610663   25.486959
 C    6.067799   33.574549   25.958802
 C    4.918137   33.844686   26.702277
 C    4.096327   32.823831   27.194433
 C    2.967828   33.102757   28.019665
 C    2.193583   32.090674   28.510016
 C    2.495551   30.742681   28.205170
 C    3.562445   30.432054   27.402650
 C    4.389090   31.460457   26.865614
 C    5.465394   31.199571   25.985457
 C    5.603457   29.858850   25.350175
 O    5.762719   28.836737   26.006210
 N    5.525335   29.821936   23.978749
 C    5.038008   30.897352   23.116298
 C    5.960415   31.058984   21.915341
 C    5.666407   28.530560   23.319427
 C    6.580043   28.647733   22.104248
 C    6.099263   29.743011   21.148066
 C    7.038537   29.874262   19.934967
 C    6.654447   30.975617   18.970025
 C    5.477416   30.926890   18.258392
 C    5.101668   31.975822   17.380639
 C    3.899459   31.974642   16.621865
 C    3.622024   33.030239   15.804562
 C    4.543873   34.119052   15.725567
 C    4.242252   35.288677   14.823649
 N    5.660124   34.151382   16.412163
 C    5.948995   33.098083   17.235174
 C    7.157509   33.140637   17.975174
 C    7.494122   32.110774   18.813285
 H    7.944197   30.926914   24.836764
 H    9.385272   32.764702   24.070960
 H    8.726730   35.125401   24.467667
 H    6.645261   35.642231   25.687484
 H    4.669599   34.877987   26.932588
 H    2.740813   34.140133   28.257701
 H    1.338472   32.313890   29.143533
 H    1.870634   29.951494   28.611258
 H    3.807942   29.400432   27.173170
 H    4.963040   31.833429   23.673731
 H    4.020709   30.648139   22.778469
 H    6.947467   31.376335   22.280565
 H    5.589007   31.851660   21.253514
 H    4.675006   28.165776   23.006259
 H    6.058273   27.831226   24.057748
 H    6.637770   27.681232   21.586498
 H    7.597355   28.889864   22.443788
 H    5.098878   29.456567   20.780395
 H    7.062588   28.910273   19.407356
 H    8.057561   30.057032   20.299147
 H    4.806787   30.073999   18.358907
 H    3.215327   31.130480   16.701917
 H    2.711823   33.062478   15.209391
 H    4.138316   34.962012   13.782756
 H    3.299847   35.769158   15.109979
 H    5.048255   36.022627   14.886518
 H    7.790321   34.012880   17.846912
 H    8.424273   32.158200   19.378218
