62 
3h0j_ligand_xtb.xyz
 C    6.668905   32.155742   25.784627
 C    7.858201   31.827260   25.083558
 C    8.877966   32.722580   24.978106
 C    8.772832   34.000198   25.567534
 C    7.654109   34.348029   26.259560
 C    6.568712   33.444813   26.395391
 C    5.415936   33.777765   27.100632
 C    4.357442   32.883262   27.230074
 C    3.182765   33.209348   27.955269
 C    2.158081   32.320734   28.064031
 C    2.246125   31.051740   27.453335
 C    3.354387   30.700300   26.745656
 C    4.445939   31.596694   26.611614
 C    5.596145   31.262973   25.888556
 C    5.716283   29.903621   25.261482
 O    6.174634   28.952565   25.867827
 N    5.272267   29.810664   23.986753
 C    4.790528   30.910665   23.187940
 C    5.770074   31.209990   22.051481
 C    5.461760   28.586637   23.240136
 C    6.464764   28.813488   22.109520
 C    6.002995   29.957491   21.204077
 C    7.030611   30.217963   20.090522
 C    6.528174   31.229712   19.101289
 C    5.657732   30.861462   18.106328
 C    5.156541   31.804950   17.192539
 C    4.265067   31.480680   16.146445
 C    3.834700   32.465976   15.305985
 C    4.291034   33.791628   15.502539
 C    3.828145   34.883319   14.590122
 N    5.114785   34.117178   16.461870
 C    5.557035   33.163382   17.305320
 C    6.451402   33.523357   18.333265
 C    6.920012   32.578934   19.202554
 H    7.946380   30.839819   24.654620
 H    9.781641   32.461996   24.446343
 H    9.594816   34.694084   25.469263
 H    7.571071   35.320575   26.723570
 H    5.341764   34.753660   27.560577
 H    3.123737   34.182070   28.422671
 H    1.268251   32.576088   28.620679
 H    1.422437   30.360693   27.556229
 H    3.429614   29.725948   26.285780
 H    4.655411   31.790969   23.817615
 H    3.815688   30.631988   22.767596
 H    6.717330   31.545688   22.479586
 H    5.371269   32.015374   21.432914
 H    4.497032   28.267699   22.828442
 H    5.823247   27.828092   23.937122
 H    6.574387   27.893529   21.533017
 H    7.437673   29.060500   22.539920
 H    5.052561   29.673598   20.736543
 H    7.232274   29.275044   19.576957
 H    7.962560   30.566245   20.539896
 H    5.348252   29.829384   18.007133
 H    3.937607   30.456478   16.026562
 H    3.153862   32.254542   14.494733
 H    4.110590   34.659712   13.562443
 H    2.743512   34.972715   14.629842
 H    4.277940   35.824884   14.889989
 H    6.750874   34.557071   18.406323
 H    7.609733   32.862252   19.984998
