62 
3h0j_ligand_aiqm1.xyz
 C    6.677815   32.207443   25.660111
 C    7.938809   31.878134   25.051576
 C    8.897652   32.829689   24.869185
 C    8.673930   34.177569   25.285336
 C    7.504459   34.520258   25.893798
 C    6.473696   33.549370   26.109125
 C    5.277362   33.884467   26.741890
 C    4.281172   32.932594   26.958908
 C    3.061689   33.264008   27.632951
 C    2.095635   32.325684   27.835983
 C    2.290153   30.986034   27.380405
 C    3.434963   30.632449   26.730010
 C    4.475421   31.595602   26.489490
 C    5.656987   31.263196   25.817099
 C    5.838253   29.879083   25.248392
 O    6.464040   29.010353   25.838927
 N    5.241883   29.659612   24.045791
 C    4.684662   30.703932   23.194698
 C    5.649597   31.047605   22.062026
 C    5.537785   28.425002   23.329190
 C    6.533664   28.696245   22.201989
 C    6.025041   29.794864   21.264319
 C    7.052029   30.100372   20.165270
 C    6.585470   31.148839   19.189576
 C    5.570581   30.893579   18.294494
 C    5.105674   31.888834   17.400906
 C    4.068725   31.662104   16.463902
 C    3.677174   32.679735   15.640107
 C    4.317925   33.950808   15.737696
 C    3.887122   35.069264   14.831574
 N    5.284921   34.192691   16.598321
 C    5.683545   33.180540   17.425748
 C    6.722248   33.436583   18.351867
 C    7.157993   32.451854   19.202341
 H    8.126168   30.847942   24.772551
 H    9.846821   32.566815   24.421261
 H    9.446859   34.918175   25.128199
 H    7.333080   35.535445   26.232938
 H    5.120543   34.903907   27.077948
 H    2.929006   34.281062   27.983750
 H    1.179889   32.585394   28.350509
 H    1.520629   30.248058   27.565179
 H    3.586395   29.610579   26.406310
 H    4.457707   31.582282   23.791226
 H    3.741774   30.332095   22.784229
 H    6.556649   31.496500   22.481929
 H    5.197860   31.790254   21.400266
 H    4.602675   28.036520   22.914211
 H    5.925174   27.712098   24.052135
 H    6.716492   27.775632   21.641567
 H    7.488358   29.007422   22.640300
 H    5.112089   29.426327   20.777501
 H    7.279105   29.171862   19.630780
 H    7.981293   30.434731   20.638058
 H    5.103829   29.912661   18.265582
 H    3.599365   30.686439   16.409570
 H    2.887006   32.533966   14.913480
 H    4.018387   34.785802   13.784959
 H    2.827300   35.291373   14.974732
 H    4.476116   35.960031   15.042430
 H    7.155465   34.428769   18.364246
 H    7.953490   32.665262   19.908456
