65 
3h0q_ligand_aiqm1.xyz
 C    5.531329   32.683166   17.681365
 C    4.261344   33.385714   15.892118
 C    6.379515   30.703792   19.529328
 C    6.815373   29.682326   20.547205
 C    5.711767   29.313858   21.548066
 C    6.194112   28.242547   22.530848
 C    5.192182   30.540509   22.304956
 C    3.676080   32.090453   15.765199
 C    4.045313   31.096176   16.626848
 C    5.004300   31.370686   17.631805
 N    5.155556   33.671691   16.815553
 C    5.440778   30.402065   18.567858
 C    6.902073   32.027078   19.566016
 C    6.492075   32.986659   18.674793
 C    3.854717   34.478498   14.944521
 C    5.114183   27.910978   23.560118
 N    4.685594   29.124603   24.248382
 C    4.147868   30.137662   23.344734
 C    5.232895   29.399275   25.462739
 C    4.919324   30.760821   26.035737
 C    5.921441   31.772210   26.053946
 C    5.546447   33.050557   26.532290
 N    4.301120   33.328995   27.011382
 C    3.410443   32.358881   27.047767
 C    3.684505   31.055005   26.541440
 C    7.254061   31.558252   25.608400
 C    8.159743   32.588197   25.611579
 C    7.776327   33.875501   26.063608
 C    6.502714   34.100145   26.518404
 C    2.069827   32.672805   27.604259
 C    1.605803   33.992572   27.588695
 C    0.350998   34.306947   28.094664
 C   -0.456931   33.307941   28.633112
 C    0.002276   31.994228   28.667759
 C    1.256410   31.676237   28.155027
 O    5.924290   28.596097   26.070971
 H    7.676406   30.069629   21.101713
 H    7.144934   28.769883   20.039146
 H    4.870293   28.895390   20.979989
 H    7.084652   28.605691   23.055877
 H    6.480453   27.336311   21.991451
 H    4.762146   31.258605   21.603802
 H    6.029443   31.038749   22.807725
 H    2.945485   31.908183   14.986406
 H    3.617297   30.103087   16.551365
 H    5.013736   29.404129   18.516930
 H    7.638483   32.276725   20.322424
 H    6.887438   33.994089   18.705049
 H    4.068134   34.189458   13.913116
 H    2.780317   34.663212   15.011662
 H    4.395482   35.392199   15.184300
 H    5.471277   27.214266   24.313675
 H    4.242458   27.477659   23.061334
 H    3.272164   29.709752   22.850883
 H    3.812941   30.997587   23.917875
 H    2.896777   30.312306   26.533445
 H    7.547481   30.563450   25.294670
 H    9.176176   32.418542   25.280987
 H    8.500091   34.679967   26.060458
 H    6.187342   35.067367   26.886969
 H    2.248049   34.761620   27.182014
 H    0.003880   35.332004   28.075963
 H   -1.433436   33.552107   29.030486
 H   -0.612317   31.214878   29.099147
 H    1.610866   30.654730   28.211844
