49 
3h0s_ligand_ani-2x.xyz
 C   39.164267  -34.993697   62.677723
 C   38.478042  -37.515644   59.827849
 C   36.527780  -36.069421   60.403514
 C   37.073911  -36.473414   64.040174
 C   36.245126  -37.770596   58.716651
 C   38.343412  -34.415250   63.831622
 C   34.039577  -38.133997   57.539742
 C   38.380075  -36.062810   61.911727
 O   37.273135  -35.369963   61.299677
 C   39.255280  -36.667725   60.811601
 C   37.862151  -37.122999   62.898075
 C   37.061415  -37.111262   59.640175
 C   35.194505  -35.692258   60.233705
 O   38.989018  -38.436274   59.220125
 C   34.405248  -36.363711   59.314266
 C   34.914605  -37.415509   58.537322
 N   37.864065  -35.453169   64.743332
 C   38.202719  -36.721173   66.815468
 C   36.403191  -37.489209   68.318714
 C   38.548093  -38.541268   68.407076
 C   39.023535  -37.665605   67.408629
 C   38.735334  -35.798374   65.769285
 C   37.251608  -38.473416   68.870888
 C   36.885329  -36.634709   67.308136
 N   35.863379  -35.792004   67.011526
 N   34.749102  -36.037749   67.730942
 C   35.055900  -37.050101   68.517687
 O   39.876825  -35.365452   65.826403
 H   40.082473  -35.441340   63.076216
 H   39.453970  -34.192254   61.988042
 H   36.186720  -35.984127   63.621648
 H   36.746523  -37.234072   64.750237
 H   36.691616  -38.579473   58.141831
 H   38.942339  -33.713980   64.415021
 H   37.467029  -33.890616   63.436333
 H   33.176016  -38.596137   58.031425
 H   33.653848  -37.442898   56.781669
 H   34.589410  -38.924676   57.020355
 H   40.063509  -37.265645   61.241393
 H   39.716276  -35.846634   60.245672
 H   38.719906  -37.671982   63.305827
 H   37.230566  -37.852379   62.379481
 H   34.796389  -34.878399   60.832309
 H   33.365773  -36.067714   59.189474
 H   39.228882  -39.278928   68.823490
 H   40.057317  -37.727188   67.082687
 H   36.897415  -39.149225   69.643791
 H   34.323124  -37.444211   69.209208
 H   35.874272  -35.067362   66.308856
