49 
3h0s_ligand_dft.xyz
 C   39.155282  -34.970706   62.684171
 C   38.417899  -37.650717   59.981089
 C   36.546375  -36.061009   60.404698
 C   37.027608  -36.389251   64.075264
 C   36.213866  -37.851364   58.812534
 C   38.328926  -34.350495   63.811701
 C   34.048487  -38.113258   57.531624
 C   38.377698  -36.060638   61.947168
 O   37.276121  -35.371007   61.316411
 C   39.234109  -36.736414   60.876821
 C   37.814648  -37.075086   62.956877
 C   37.033451  -37.189954   59.735461
 C   35.258637  -35.596423   60.129977
 O   38.885086  -38.653369   59.477497
 C   34.475153  -36.262275   59.202602
 C   34.932162  -37.406861   58.528664
 N   37.843989  -35.369575   64.742882
 C   38.201220  -36.703904   66.771120
 C   36.446750  -37.570228   68.275308
 C   38.633833  -38.541397   68.322278
 C   39.059567  -37.632959   67.332622
 C   38.713491  -35.723072   65.764718
 C   37.337059  -38.521565   68.797738
 C   36.885916  -36.680383   67.275041
 N   35.817080  -35.889115   66.987234
 N   34.729213  -36.192569   67.730529
 C   35.085874  -37.197156   68.499536
 O   39.818335  -35.217666   65.884650
 H   40.065422  -35.406650   63.110134
 H   39.453400  -34.197575   61.967942
 H   36.139580  -35.899577   63.661502
 H   36.690029  -37.131537   64.798001
 H   36.625721  -38.726077   58.316501
 H   38.929114  -33.633999   64.371669
 H   37.455727  -33.836523   63.397652
 H   33.120279  -38.460330   57.999481
 H   33.769661  -37.447864   56.706784
 H   34.552870  -38.983716   57.103138
 H   40.051828  -37.306389   61.325435
 H   39.679168  -35.962236   60.236079
 H   38.651627  -37.633414   63.394101
 H   37.170480  -37.802896   62.450720
 H   34.893578  -34.719737   60.654706
 H   33.473574  -35.891271   58.997405
 H   39.343907  -39.260827   68.716762
 H   40.090295  -37.648432   66.992317
 H   37.014755  -39.219951   69.564032
 H   34.373750  -37.624622   69.191907
 H   35.787399  -35.113961   66.344515
