16 
3h22_ligand_ani-2x.xyz
 O  -62.617781   58.203565  137.015507
 N  -62.872554   59.396785  137.059614
 C  -63.755544   59.836837  138.022050
 C  -64.447296   58.997806  138.989432
 O  -64.417988   57.795751  139.104175
 C  -63.991035   61.237457  138.015410
 N  -63.387583   62.012516  137.109299
 N  -64.815081   61.871382  138.893346
 C  -65.399024   61.118953  139.784679
 N  -66.273393   61.679731  140.675878
 N  -65.241233   59.762744  139.875237
 H  -63.560109   63.004865  137.122405
 H  -62.759101   61.591605  136.442957
 H  -66.316414   61.265393  141.595778
 H  -66.226712   62.689886  140.685717
 H  -65.796151   59.204724  140.511516
