16 
3h22_ligand_dft.xyz
 O  -62.676933   58.196148  136.911806
 N  -62.913201   59.394210  136.997324
 C  -63.760963   59.827380  138.006863
 C  -64.411407   58.998911  138.993735
 O  -64.373651   57.799957  139.163992
 C  -63.975804   61.229286  138.028236
 N  -63.379850   62.008953  137.119111
 N  -64.763136   61.868828  138.925228
 C  -65.357979   61.116951  139.825630
 N  -66.150354   61.720042  140.736262
 N  -65.219583   59.772613  139.890380
 H  -63.535829   63.002866  137.142146
 H  -62.781788   61.574773  136.430908
 H  -66.641049   61.217925  141.455992
 H  -66.246104   62.720755  140.678899
 H  -65.689369   59.220401  140.596487
