17 
3h2c_ligand_ani-2x.xyz
 N  -65.147621   61.001953  139.644737
 C  -64.178713   60.688013  138.730579
 N  -63.739391   61.633730  137.919771
 N  -62.814961   61.371504  136.967620
 C  -63.681656   59.365649  138.632209
 N  -63.943583   58.232884  139.379138
 C  -63.169247   57.329664  138.844425
 N  -62.425491   57.785764  137.795851
 C  -62.747402   59.118253  137.652927
 C  -62.330833   60.159494  136.795433
 N  -61.365848   59.961967  135.817682
 H  -65.254707   60.368565  140.421918
 H  -65.269434   61.985876  139.831449
 H  -63.098098   56.300660  139.171838
 H  -61.703286   57.274739  137.310732
 H  -61.475049   59.114796  135.276922
 H  -61.284682   60.777489  135.220769
