17 
3h2c_ligand_aiqm1.xyz
 N  -65.175863   61.006202  139.619549
 C  -64.181523   60.676472  138.730004
 N  -63.732884   61.626823  137.922413
 N  -62.821929   61.345712  136.954693
 C  -63.682646   59.354849  138.637242
 N  -63.936136   58.228122  139.390988
 C  -63.159194   57.312061  138.867245
 N  -62.420224   57.768903  137.806991
 C  -62.742322   59.094637  137.656074
 C  -62.333406   60.135388  136.794104
 N  -61.343552   59.938600  135.814497
 H  -65.254732   60.410702  140.427079
 H  -65.257229   61.992959  139.803573
 H  -63.083831   56.291889  139.205336
 H  -61.705292   57.262726  137.314818
 H  -61.596083   59.217173  135.152944
 H  -61.203153   60.807781  135.316448
