22 
3h2f_ligand_dft.xyz
 O  -64.626491   57.762640  139.525733
 C  -64.719976   58.928788  139.194016
 C  -64.099568   59.625221  138.100430
 C  -64.342182   60.989165  137.929358
 N  -65.136197   61.739804  138.746879
 C  -65.705057   61.111928  139.741198
 N  -66.466213   61.826231  140.626264
 N  -65.559765   59.785993  139.968440
 N  -63.144733   58.948045  137.342630
 C  -62.703709   59.526908  136.297986
 C  -63.217817   60.855542  135.795761
 N  -63.718490   61.643908  136.909390
 C  -63.948671   63.047087  136.644806
 H  -66.684332   62.760083  140.311070
 H  -67.215649   61.352135  141.107228
 H  -61.926505   59.029492  135.718145
 H  -62.412150   61.415643  135.306651
 H  -64.241250   63.550583  137.563935
 H  -63.025118   63.493119  136.260677
 H  -64.741232   63.188377  135.895069
 H  -65.960959   59.343271  140.784869
 H  -64.006934   60.702039  135.033464
