61 
3hb4_ligand_aiqm1.xyz
 N    4.554184    3.740445    0.619641
 C   -1.401628   -0.219784    0.385233
 C   -2.766298   -0.774056   -0.062472
 C   -0.320314   -1.103091   -0.214177
 C   -1.368044   -0.159855    1.907975
 C   -0.347635   -1.099475   -1.750701
 C   -3.914842    0.011308    0.556904
 C   -1.691052   -1.676015   -2.202802
 C    1.151442   -0.839049    0.117975
 C    5.024303    2.783372    1.482568
 C    5.757780    0.423931    1.623579
 C   -3.729800    0.742558    1.743947
 C   -2.867281   -0.902668   -1.589248
 C    1.941652   -1.591873   -0.986673
 C    0.869938   -2.002288   -2.030657
 C   -0.131126    0.293757   -2.373878
 C    4.955249    1.370882    0.990957
 C   -5.197815   -0.006929   -0.004738
 C    5.732350   -0.895853    1.192770
 C    3.099991   -0.773705   -1.563674
 C    4.112972    0.982735   -0.051599
 C    4.894237   -1.273976    0.146518
 C   -2.379231    0.862171    2.411805
 C   -6.072775    1.376057    1.743554
 C    4.062191   -0.342124   -0.485353
 C   -4.811037    1.414960    2.321806
 C   -6.271117    0.661939    0.569963
 O   -7.153902    2.019876    2.282767
 O    5.451519    3.066814    2.586097
 O    1.409496   -1.948647   -3.341855
 H    4.753156    4.688426    0.890192
 H    4.531455    3.549041   -0.365460
 H   -1.283478    0.798662   -0.004821
 H   -2.821762   -1.794107    0.348802
 H   -0.551514   -2.137872    0.095635
 H   -0.371932    0.098964    2.274805
 H   -1.608222   -1.151427    2.309693
 H   -1.771932   -1.665017   -3.295127
 H   -1.748272   -2.725532   -1.887757
 H    1.356449    0.233871    0.058243
 H    1.441757   -1.160907    1.117871
 H    6.385146    0.741194    2.443810
 H   -3.795943   -1.410394   -1.859593
 H   -2.927342    0.098247   -2.028586
 H    2.363677   -2.516284   -0.569255
 H    0.564522   -3.040386   -1.820270
 H    0.157737    0.180467   -3.420990
 H   -1.033687    0.904648   -2.343912
 H    0.660450    0.858897   -1.876657
 H   -5.376994   -0.557485   -0.918920
 H    6.357788   -1.636648    1.675179
 H    2.709791    0.100854   -2.088203
 H    3.617856   -1.377737   -2.312749
 H    3.451609    1.711247   -0.510962
 H    4.873658   -2.309175   -0.177541
 H   -2.501800    0.778414    3.493308
 H   -1.998315    1.871641    2.227524
 H   -4.661657    1.975775    3.241311
 H   -7.255516    0.635771    0.122700
 H   -6.878593    2.467115    3.086037
 H    0.768896   -2.351381   -3.930140
