38 
3hdm_ligand_aiqm1.xyz
 C   39.049697   30.207669   66.367490
 C   36.674672   29.898976   66.597846
 C   34.446432   35.973045   69.988970
 C   33.846704   33.799814   69.126291
 C   33.224315   36.481826   69.570489
 C   36.818678   32.258386   68.480744
 C   37.863095   30.477053   67.058955
 C   32.308593   35.646828   68.925251
 C   36.875640   33.060461   69.624046
 C   30.991423   36.138826   68.456709
 C   37.859309   28.804242   64.803131
 C   39.046561   29.379313   65.248146
 C   36.672319   29.067122   65.481741
 C   32.623930   34.303928   68.706684
 C   36.748574   34.507464   71.341064
 C   38.915699   31.292877   69.182125
 C   34.779126   34.626975   69.770959
 C   37.856929   31.357584   68.250821
 C   36.067087   34.100620   70.222887
 C   38.011093   32.895671   70.449175
 N   37.907800   33.787312   71.480818
 N   39.019209   32.044320   70.274077
 O   30.160614   35.469462   67.893391
 O   30.800217   37.450489   68.728561
 H   39.976735   30.662958   66.694689
 H   35.749134   30.097058   67.126611
 H   35.159536   36.623697   70.478930
 H   34.075666   32.752668   68.970893
 H   32.973436   37.520890   69.735451
 H   36.008969   32.341024   67.763602
 H   37.858741   28.159450   63.934850
 H   39.973105   29.186814   64.722984
 H   35.743561   28.625638   65.144339
 H   31.899182   33.671496   68.212010
 H   36.481494   35.249599   72.074876
 H   39.711797   30.575158   69.021000
 H   29.925062   37.668192   68.386151
 H   38.569867   33.866095   72.229241
