47 
3hdn_ligand_dft.xyz
 C   39.776831   26.702594   66.789107
 C   32.446824   33.052772   68.376270
 C   32.674830   35.403180   68.790837
 C   38.102499   29.511522   64.981753
 C   33.701086   32.834141   68.928346
 C   37.920583   30.411995   65.995843
 C   36.324413   34.290578   71.103737
 C   30.548830   34.587329   67.712064
 C   38.725505   28.258875   65.220465
 C   38.345423   30.119964   67.321966
 C   38.132647   31.108847   68.406096
 C   36.807660   32.738683   69.554298
 C   37.908161   32.864212   70.432429
 C   39.536013   26.103821   64.460138
 C   39.962636   25.799581   65.774801
 C   38.931947   27.304710   64.190994
 C   33.936429   35.188159   69.333904
 C   38.948338   28.907222   67.570775
 C   36.946921   31.833425   68.502186
 C   39.143367   31.338402   69.365895
 C   31.915304   34.341944   68.301151
 C   34.470090   33.898813   69.415968
 C   39.156929   27.955668   66.540745
 C   35.796548   33.663920   70.004347
 C   30.441965   34.243695   66.238761
 N   37.588880   33.816987   71.365274
 N   39.058423   32.200980   70.372562
 O   29.473512   34.967457   65.642294
 O   31.086540   33.413414   65.648067
 H   40.103491   26.471407   67.799848
 H   31.874033   32.213301   67.994912
 H   32.282674   36.415957   68.736002
 H   37.778082   29.752778   63.972699
 H   34.082468   31.820070   69.005538
 H   37.464198   31.375832   65.788649
 H   35.872482   35.035748   71.743293
 H   30.236848   35.625931   67.850840
 H   29.794117   33.970527   68.219359
 H   39.688999   25.379949   63.665295
 H   40.439261   24.844861   65.976366
 H   38.601835   27.542442   63.182864
 H   34.525776   36.032915   69.679786
 H   39.255203   28.651662   68.582308
 H   36.148307   31.683739   67.780820
 H   40.084003   30.798057   69.282767
 H   29.436527   34.662999   64.721137
 H   38.189563   34.092934   72.124445
