57 
3hha_ligand_aiqm1.xyz
 O   -1.766970    1.532240    0.611047
 C   -0.679640    1.178287    0.178831
 C    0.232769    0.299273    0.939377
 N    0.172799    0.140971    2.284866
 C   -0.689942    0.854095    3.222982
 N    1.039631   -0.778047    2.714279
 C    1.672184   -1.238243    1.625084
 C    2.699351   -2.331161    1.755193
 C    2.012134   -3.587100    2.313019
 C    3.324507   -2.653665    0.394037
 C    3.792737   -1.872968    2.730429
 C    1.203044   -0.577403    0.478446
 N   -0.206719    1.599316   -1.030586
 C   -1.144553    2.089802   -2.038011
 C   -1.793672    3.428208   -1.643596
 N   -1.085036    4.165961   -0.753064
 C   -1.582567    5.413083   -0.216620
 C   -1.931897    5.365880    1.257575
 N   -2.151567    4.346979    1.986051
 O   -2.833143    3.794970   -2.158814
 C   -2.212166    1.040560   -2.407647
 C   -1.580678   -0.312440   -2.618347
 C   -0.844246   -0.593922   -3.773233
 C   -0.178493   -1.809100   -3.898976
 C   -1.636832   -1.274678   -1.608944
 C   -0.961307   -2.492714   -1.710773
 C   -0.996547   -3.485342   -0.579764
 C   -0.227490   -2.747252   -2.871762
 H   -0.346199    0.603477    4.220979
 H   -1.720538    0.547232    3.085485
 H   -0.621339    1.926545    3.052682
 H    1.542759   -3.373606    3.274655
 H    2.745002   -4.386174    2.449635
 H    1.238779   -3.944660    1.628138
 H    4.066357   -3.447272    0.510242
 H    2.566846   -2.995318   -0.314758
 H    3.823063   -1.778581   -0.028784
 H    4.312842   -0.993272    2.344992
 H    4.525270   -2.671374    2.874676
 H    3.356990   -1.618415    3.697681
 H    1.496019   -0.759652   -0.541668
 H    0.597098    1.104610   -1.379167
 H   -0.548295    2.309527   -2.927662
 H   -0.284472    3.734454   -0.325131
 H   -0.841577    6.207469   -0.365925
 H   -2.463605    5.682873   -0.798493
 H   -2.008302    6.351009    1.720714
 H   -2.084339    3.480001    1.450237
 H   -2.937727    0.984532   -1.597693
 H   -2.733684    1.385876   -3.298130
 H   -0.795181    0.136436   -4.573003
 H    0.383522   -2.023092   -4.799186
 H   -2.211765   -1.059315   -0.714862
 H   -0.747090   -4.485866   -0.931002
 H   -1.981770   -3.514533   -0.116362
 H   -0.274865   -3.211535    0.196820
 H    0.300906   -3.686864   -2.976183
