57 
3hha_ligand_xtb.xyz
 O   -1.708786    1.714022    0.674910
 C   -0.687382    1.239063    0.204707
 C    0.182110    0.314510    0.930201
 N    0.060388    0.073139    2.259791
 C   -0.818597    0.708417    3.198719
 N    0.897450   -0.859650    2.663499
 C    1.583615   -1.267290    1.597824
 C    2.633774   -2.334444    1.718526
 C    2.042603   -3.529160    2.474670
 C    3.112863   -2.781364    0.336497
 C    3.811331   -1.760023    2.516752
 C    1.171686   -0.550987    0.470394
 N   -0.239438    1.573565   -1.041845
 C   -1.160116    2.087667   -2.042880
 C   -1.871915    3.368295   -1.576136
 N   -1.108227    4.174459   -0.808930
 C   -1.609735    5.398521   -0.231984
 C   -1.686872    5.354751    1.278223
 N   -1.748935    4.355832    2.025192
 O   -2.984240    3.659852   -1.951439
 C   -2.205498    1.023911   -2.442379
 C   -1.532841   -0.307393   -2.613034
 C   -0.775587   -0.583447   -3.746421
 C   -0.080266   -1.774423   -3.844305
 C   -1.579546   -1.246804   -1.593444
 C   -0.879741   -2.444933   -1.675376
 C   -0.942398   -3.423548   -0.542878
 C   -0.124220   -2.696753   -2.811737
 H   -0.650225    0.242920    4.167316
 H   -1.856893    0.579696    2.892690
 H   -0.614348    1.778492    3.259749
 H    1.651756   -3.200961    3.433482
 H    2.806773   -4.284717    2.641900
 H    1.231429   -3.977882    1.905435
 H    3.830537   -3.592029    0.440004
 H    2.278306   -3.134613   -0.265123
 H    3.599143   -1.962260   -0.188832
 H    4.238750   -0.901579    2.002189
 H    4.586899   -2.512677    2.638675
 H    3.471605   -1.440903    3.498377
 H    1.519155   -0.671417   -0.535571
 H    0.521769    1.020480   -1.405464
 H   -0.556272    2.359151   -2.917065
 H   -0.222294    3.831706   -0.470121
 H   -0.981717    6.241392   -0.543391
 H   -2.617868    5.547244   -0.635287
 H   -1.681517    6.332987    1.754520
 H   -1.791784    3.452524    1.546305
 H   -2.956724    0.972729   -1.653495
 H   -2.695154    1.350357   -3.359464
 H   -0.735329    0.135863   -4.552047
 H    0.504670   -1.985478   -4.727808
 H   -2.171234   -1.042951   -0.711580
 H   -0.348817   -4.309190   -0.756935
 H   -1.972052   -3.730091   -0.364020
 H   -0.569717   -2.963608    0.372423
 H    0.430074   -3.620870   -2.893978
