39 
3hmm_ligand_ani-2x.xyz
 C   10.750528   63.191985    5.715816
 C   11.858826   63.901858    4.977623
 C   12.014536   63.764458    3.592823
 C   13.051487   64.438576    2.963982
 C   13.900338   65.231019    3.725371
 C   13.662820   65.305709    5.097451
 N   12.671311   64.656148    5.712769
 C   14.542964   66.144909    5.946443
 N   15.426641   66.894341    5.237475
 C   16.274703   67.642391    5.902598
 C   17.369950   68.488310    3.825311
 C   16.306027   68.407759    2.923955
 C   16.575275   68.557938    1.570089
 N   17.785054   68.780734    1.052909
 C   18.787320   68.870546    1.929836
 C   18.641657   68.745480    3.303420
 C   16.243077   67.700115    7.345491
 C   17.085781   68.502748    8.154803
 C   16.968591   68.472161    9.524114
 C   16.003172   67.643750   10.137063
 C   15.169202   66.866815    9.375111
 C   15.267371   66.881533    7.961503
 N   14.409830   66.098008    7.243608
 N   17.210763   68.373041    5.213980
 H    9.768004   63.503385    5.342057
 H   10.819427   62.106395    5.578997
 H   10.815085   63.421705    6.781466
 H   11.327570   63.135704    3.032710
 H   13.197146   64.347401    1.889989
 H   14.731428   65.777212    3.285327
 H   15.295651   68.236068    3.276810
 H   15.758343   68.488298    0.852436
 H   19.774526   69.057981    1.509593
 H   19.508527   68.832437    3.954177
 H   17.823669   69.163997    7.704653
 H   17.620813   69.086152   10.139065
 H   15.921035   67.626676   11.220799
 H   14.414615   66.224021    9.819013
 H   17.970035   68.743336    5.763565
