58 
3ho2_ligand_aiqm1.xyz
 C   -4.150724    0.165054    0.726257
 O    1.056782    2.558160   -1.298053
 O    1.297788   -1.970825   -2.537974
 N    2.376945   -0.102255   -1.898992
 C    1.308192   -0.754489   -2.443728
 C    0.148014    0.119053   -2.865609
 C   -0.899581    0.179429   -1.715286
 C   -1.138604    1.589041   -1.119351
 C    0.201100    2.093635   -0.561283
 C    0.488897    1.952181    0.876364
 C   -0.388707    1.429934    1.743959
 C   -1.773707    0.974040    1.362153
 C   -2.198378    1.609838    0.013835
 C   -3.594261    1.070769   -0.386462
 C   -1.846697   -0.563648    1.391383
 C   -3.205387   -0.996139    0.902465
 C   -3.540912   -2.263772    0.634896
 C   -1.591170    2.551631   -2.232958
 C   -2.796189    1.458125    2.411019
 C   -4.218896    0.966387    2.035448
 O    4.714107    1.140517   -1.194676
 O    1.799108   -1.294824    0.548964
 O    4.546129   -3.622637    2.674875
 O    2.504664   -3.782210    1.765690
 C    3.730295   -3.254969    1.863815
 C    4.009638   -2.195464    0.846944
 C    2.916661   -1.455756    0.111848
 C    3.386704   -0.858540   -1.234101
 C    4.635854   -0.039053   -0.959078
 C    5.770184   -0.843629   -0.346668
 C    5.298974   -1.866970    0.644693
 H   -5.137827   -0.208341    0.449316
 H    2.364266    0.900781   -1.768004
 H   -0.295783   -0.346210   -3.746341
 H    0.506687    1.109185   -3.141402
 H   -0.592482   -0.506735   -0.926938
 H   -1.846063   -0.204109   -2.097378
 H    1.477388    2.262027    1.193411
 H   -0.101068    1.301661    2.786044
 H   -2.310457    2.681844    0.252846
 H   -4.283524    1.901497   -0.558717
 H   -3.549818    0.510164   -1.321995
 H   -1.713731   -0.876400    2.433512
 H   -1.043155   -1.050314    0.837817
 H   -2.834407   -3.077401    0.741859
 H   -4.541751   -2.512547    0.298162
 H   -1.760171    3.554401   -1.832535
 H   -2.515406    2.205356   -2.698525
 H   -0.836882    2.636230   -3.010132
 H   -2.766919    2.550595    2.474477
 H   -2.503571    1.072089    3.392436
 H   -4.628709    0.338326    2.829347
 H   -4.897219    1.813892    1.907286
 H    2.441117   -4.444377    2.467019
 H    3.685221   -1.717907   -1.839308
 H    6.487513   -0.154988    0.099689
 H    6.294941   -1.358343   -1.157275
 H    6.054685   -2.373088    1.236245
