59 
3ho9_ligand_ani-2x.xyz
 C   -4.351308   -1.131945    1.145196
 O    0.669802    1.630343   -0.801956
 O    2.430193   -1.752189    2.342477
 N    2.946694   -0.212063    0.728044
 C    2.085474   -0.913218    1.510222
 C    0.622697   -0.568199    1.297983
 C    0.085158   -0.933025   -0.098953
 C   -1.062133   -0.034820   -0.596507
 C   -0.525023    1.405248   -0.725703
 C   -1.532446    2.488974   -0.819012
 C   -2.833728    2.250550   -0.588479
 C   -3.380436    1.006624    0.037556
 C   -2.245687    0.012768    0.395773
 C   -2.877975   -1.342845    0.743139
 C   -4.080703    1.342659    1.384903
 C   -4.435065    0.051049    2.091242
 C   -4.753358   -0.045993    3.378277
 C   -1.457977   -0.483619   -2.009172
 C   -4.459028    0.368275   -0.872336
 C   -5.151711   -0.781502   -0.121638
 O    4.910615   -1.117965    2.838927
 O    3.992262    0.400815   -1.605818
 O    6.074483    0.761941   -3.181602
 O    8.113431    0.393998   -2.354822
 C    6.778829    0.427248   -2.235701
 C    6.268162    0.039317   -0.915151
 C    4.887139    0.035275   -0.667136
 C    4.360085   -0.343207    0.587300
 C    5.254728   -0.733574    1.601693
 C    6.642398   -0.688640    1.354513
 C    7.137350   -0.320558    0.126637
 O   -5.376277    1.388616   -1.237548
 H   -4.759973   -2.027709    1.622450
 H    2.525986    0.437400    0.072051
 H    0.058799   -1.087388    2.076646
 H    0.502293    0.508202    1.465582
 H    0.888660   -0.853644   -0.836948
 H   -0.239208   -1.981209   -0.110404
 H   -1.148230    3.460512   -1.105630
 H   -3.571531    3.013224   -0.822371
 H   -1.817425    0.422523    1.324486
 H   -2.324359   -1.813315    1.563278
 H   -2.839079   -2.028262   -0.110010
 H   -3.419032    1.959832    2.003930
 H   -4.978907    1.936272    1.177642
 H   -4.765629    0.817996    4.039475
 H   -5.020942   -1.003351    3.820053
 H   -2.079669    0.268837   -2.503581
 H   -1.998985   -1.436421   -1.992577
 H   -0.562249   -0.622314   -2.624562
 H   -3.982447   -0.020631   -1.781365
 H   -6.158201   -0.459085    0.166479
 H   -5.250805   -1.659270   -0.768965
 H    3.970836   -1.422904    2.839155
 H    4.486673    0.621747   -2.424617
 H    8.311187    0.669635   -3.265015
 H    7.299714   -0.969254    2.171562
 H    8.206176   -0.302724   -0.057592
 H   -6.070600    0.971564   -1.762001
