47 
3hqz_ligand_dft.xyz
 C   13.306166   18.105790   42.462373
 C   15.170675   17.069707   46.584102
 C   10.912302   16.719624   42.662433
 C    9.400304   17.759909   38.324097
 C   11.789765   16.746296   43.731783
 C   11.227920   17.392281   41.478010
 C   10.555969   17.978017   39.273869
 C    8.702261   18.797382   34.964585
 C    6.542733   17.938843   34.285693
 C    7.721412   18.675959   34.014951
 C    8.549223   18.184496   36.234925
 N    9.546760   18.328776   37.149871
 C    6.369211   17.336680   35.504535
 C    7.367013   17.445175   36.506566
 C    7.253609   16.849420   37.785806
 C    8.262704   17.001813   38.697467
 O   10.303641   17.305228   40.486748
 C   12.430380   18.092681   41.379860
 C   13.007178   17.435044   43.647004
 C   13.944462   17.483450   44.784698
 C   14.266668   16.466198   45.732454
 N   15.345268   18.327260   46.130402
 N   14.608199   18.606816   45.046226
 C   13.829232   15.063853   45.801140
 C   13.713074   14.269824   44.656037
 C   13.320215   12.944224   44.789824
 N   13.047825   12.356536   45.958451
 C   13.165451   13.117058   47.048449
 C   13.541191   14.455595   47.025798
 H   14.241832   18.650576   42.387026
 H   15.712113   16.682285   47.434929
 H    9.967943   16.189219   42.725056
 H   11.523196   16.231740   44.649682
 H   11.477268   17.605814   38.805855
 H   10.678582   19.056060   39.445709
 H    9.613490   19.356793   34.779936
 H    5.776505   17.853316   33.521277
 H    7.844381   19.147337   33.044418
 H    5.467312   16.769275   35.719857
 H    6.363545   16.275406   38.031511
 H    8.214153   16.562100   39.685528
 H   12.699921   18.624544   40.474893
 H   13.927838   14.680579   43.675284
 H   13.223853   12.315501   43.907112
 H   12.939152   12.631509   47.995750
 H   13.592703   15.023907   47.949724
 H   15.937401   19.046107   46.513298
