47 
3hqz_ligand_xtb.xyz
 C   13.213059   18.258570   42.587215
 C   15.096180   17.021071   46.626638
 C   10.958166   16.668618   42.637093
 C    9.355405   17.939827   38.398971
 C   11.819513   16.666769   43.710580
 C   11.217024   17.462394   41.517523
 C   10.491608   18.170103   39.360688
 C    8.939777   18.177847   34.863082
 C    6.664879   17.643064   34.281288
 C    7.967974   18.017778   33.915205
 C    8.643227   17.967601   36.225633
 N    9.625048   18.129706   37.134862
 C    6.347399   17.431879   35.594218
 C    7.324262   17.588146   36.596812
 C    7.070539   17.387257   37.969987
 C    8.080252   17.566368   38.873046
 O   10.300845   17.382968   40.514093
 C   12.353543   18.264311   41.504258
 C   12.969699   17.456123   43.696549
 C   13.891913   17.479700   44.824038
 C   14.233359   16.429546   45.724662
 N   15.238127   18.305095   46.246600
 N   14.517475   18.595743   45.168611
 C   13.847325   15.026350   45.694421
 C   13.749032   14.321769   44.494152
 C   13.399345   12.984015   44.536387
 N   13.154394   12.323475   45.656661
 C   13.255221   12.987735   46.795807
 C   13.596544   14.326516   46.874653
 H   14.093114   18.882730   42.580748
 H   15.622176   16.611604   47.465328
 H   10.066892   16.060929   42.639988
 H   11.592194   16.059500   44.573905
 H   11.434441   17.921717   38.856811
 H   10.513719   19.239450   39.625183
 H    9.946360   18.464797   34.602571
 H    5.914122   17.522757   33.514066
 H    8.195464   18.178868   32.871562
 H    5.346467   17.143185   35.883306
 H    6.078832   17.096644   38.289135
 H    7.934127   17.421931   39.931062
 H   12.580203   18.894690   40.658848
 H   13.946207   14.812293   43.553564
 H   13.311634   12.405213   43.625911
 H   13.049359   12.413119   47.690097
 H   13.654833   14.825469   47.830308
 H   15.800722   19.020759   46.678876
