55 
3hv7_ligand_ani-2x.xyz
 C   -3.964447   -2.134039  -17.354546
 C   -4.799360   -2.763791  -16.389539
 C   -6.164702   -2.748988  -16.519163
 C   -6.768439   -2.094005  -17.615399
 C   -5.992434   -1.453759  -18.542529
 C   -4.576521   -1.442368  -18.430160
 C   -3.767466   -0.745049  -19.368239
 C   -2.405763   -0.740096  -19.233460
 C   -1.774096   -1.441532  -18.181373
 C   -2.526980   -2.151717  -17.278476
 N   -1.950466   -2.944708  -16.264860
 C   -0.656284   -2.872169  -15.794333
 O    0.184896   -2.077660  -16.163395
 N   -0.406939   -3.836808  -14.823354
 C    0.799078   -3.892179  -14.120746
 C    1.850750   -3.008479  -14.016446
 C    2.712243   -3.592297  -13.058779
 C    4.014055   -3.017645  -12.555030
 C    3.738622   -1.659181  -11.888794
 C    4.657710   -3.967282  -11.544789
 C    4.960838   -2.809176  -13.748459
 N    2.233560   -4.745077  -12.616643
 N    1.075287   -4.945905  -13.295964
 C    0.356897   -6.150574  -13.063005
 C   -0.356611   -6.789979  -14.074039
 C    0.430903   -6.696246  -11.783830
 C   -0.260148   -7.869116  -11.515151
 C   -0.988262   -8.512904  -12.507828
 C   -1.030366   -7.984637  -13.800206
 N   -1.791316   -8.593853  -14.799429
 H   -4.361331   -3.238623  -15.515090
 H   -6.786781   -3.246117  -15.778894
 H   -7.851255   -2.094364  -17.711037
 H   -6.448354   -0.935076  -19.382344
 H   -4.249461   -0.212080  -20.184243
 H   -1.783983   -0.195551  -19.940340
 H   -0.696088   -1.432210  -18.087709
 H   -2.488323   -3.763224  -16.023408
 H   -1.194447   -4.289591  -14.375923
 H    1.949157   -2.084841  -14.561486
 H    3.250215   -0.979500  -12.594713
 H    3.084150   -1.776129  -11.018172
 H    4.675806   -1.198613  -11.556603
 H    4.002750   -4.121122  -10.682498
 H    4.855731   -4.942445  -11.998615
 H    5.606603   -3.547917  -11.191163
 H    5.198247   -3.764138  -14.229774
 H    4.496497   -2.156886  -14.495179
 H    5.897661   -2.346042  -13.418838
 H   -0.386705   -6.374038  -15.076699
 H    1.028102   -6.193552  -11.030124
 H   -0.222339   -8.296506  -10.516126
 H   -1.526837   -9.431429  -12.287766
 H   -1.489773   -8.372704  -15.738183
 H   -1.932581   -9.587085  -14.679109
