55 
3hv7_ligand_xtb.xyz
 C   -3.922959   -2.350370  -17.402677
 C   -4.614451   -3.465580  -16.880722
 C   -5.887665   -3.768489  -17.278657
 C   -6.545938   -2.971591  -18.224125
 C   -5.906759   -1.889431  -18.757230
 C   -4.592280   -1.551744  -18.371313
 C   -3.939121   -0.438609  -18.937875
 C   -2.664629   -0.123118  -18.562533
 C   -1.992301   -0.889115  -17.605209
 C   -2.595818   -1.980696  -17.024224
 N   -1.944165   -2.744649  -16.053184
 C   -0.632707   -2.671697  -15.640710
 O    0.200836   -1.910436  -16.067846
 N   -0.368751   -3.611498  -14.666215
 C    0.857290   -3.766965  -14.036555
 C    1.965385   -2.957462  -13.975328
 C    2.846912   -3.622129  -13.095031
 C    4.218054   -3.171440  -12.684740
 C    4.120130   -1.772901  -12.063916
 C    4.806324   -4.148557  -11.666700
 C    5.110911   -3.120114  -13.930523
 N    2.307857   -4.738655  -12.651126
 N    1.101597   -4.844822  -13.235046
 C    0.272366   -5.940083  -12.967143
 C   -0.479163   -6.523269  -13.980938
 C    0.225292   -6.452063  -11.674741
 C   -0.602793   -7.525550  -11.403229
 C   -1.384294   -8.086374  -12.394807
 C   -1.323334   -7.596605  -13.700193
 N   -2.136424   -8.114833  -14.689424
 H   -4.147784   -4.118044  -16.154357
 H   -6.391820   -4.628953  -16.863399
 H   -7.552042   -3.222035  -18.525911
 H   -6.399164   -1.267923  -19.491357
 H   -4.465040    0.153315  -19.672328
 H   -2.159659    0.726731  -18.996558
 H   -0.988801   -0.625671  -17.318670
 H   -2.518553   -3.449045  -15.616056
 H   -1.102182   -4.221880  -14.332606
 H    2.103419   -2.033958  -14.493971
 H    3.716988   -1.061121  -12.779615
 H    3.469674   -1.790705  -11.192077
 H    5.105548   -1.431790  -11.753704
 H    4.180140   -4.189549  -10.779950
 H    4.853983   -5.147524  -12.090205
 H    5.807543   -3.835130  -11.379078
 H    5.186733   -4.107534  -14.380492
 H    4.700051   -2.436273  -14.669015
 H    6.110097   -2.783386  -13.662377
 H   -0.381159   -6.183182  -15.002446
 H    0.844608   -6.006736  -10.914350
 H   -0.643809   -7.928553  -10.402629
 H   -2.035728   -8.918709  -12.172719
 H   -1.830589   -7.966155  -15.638277
 H   -2.500957   -9.038348  -14.517897
