30 
3hw1_ligand_xtb.xyz
 N  -19.807635  -92.673930   10.950976
 C  -18.633611  -92.612065   11.672351
 N  -18.016127  -91.464477   11.671320
 C  -16.838619  -91.351789   12.338021
 C  -16.158791  -90.126409   12.374966
 C  -14.934597  -90.046792   12.988609
 C  -18.118949  -93.745338   12.415770
 N  -16.934264  -93.669075   12.975803
 C  -16.264067  -92.492276   12.947611
 C  -15.004320  -92.386635   13.557508
 C  -14.356127  -91.178396   13.575788
 N  -18.782122  -94.937642   12.494318
 C  -20.236207  -95.042559   12.522153
 C  -20.558543  -96.152390   13.537110
 C  -19.274137  -96.293239   14.350451
 C  -18.207300  -96.003591   13.300974
 H  -19.940021  -91.847930   10.383590
 H  -19.994316  -93.538580   10.470704
 H  -16.618865  -89.267536   11.910837
 H  -14.405664  -89.105157   13.019399
 H  -14.576613  -93.266817   14.012890
 H  -13.388950  -91.092336   14.049983
 H  -20.624270  -95.313507   11.533980
 H  -20.680392  -94.089660   12.818863
 H  -20.770256  -97.086661   13.016154
 H  -21.421061  -95.898199   14.149732
 H  -19.166092  -97.276972   14.801312
 H  -19.234147  -95.537258   15.135421
 H  -17.257700  -95.669604   13.714085
 H  -18.044136  -96.879679   12.663422
