30 
3hw1_ligand_dft.xyz
 N   -0.947181    2.741489   -0.172439
 C   -0.124186    1.638249   -0.142481
 N    1.150750    1.799105    0.074717
 C    1.930601    0.673015    0.085201
 C    3.316310    0.784745    0.325818
 C    4.113024   -0.337367    0.307132
 C   -0.713200    0.320487   -0.348256
 N    0.026892   -0.746724   -0.383457
 C    1.374690   -0.599972   -0.173941
 C    2.208373   -1.736878   -0.194212
 C    3.557334   -1.606857    0.044756
 N   -2.095598    0.257855   -0.593447
 C   -2.943064    0.548699    0.582293
 C   -3.092054   -0.801008    1.310486
 C   -2.943556   -1.859161    0.190663
 C   -2.597879   -1.036110   -1.069629
 H   -0.446154    3.613740   -0.274620
 H   -1.762460    2.643391   -0.763354
 H    3.723068    1.771958    0.520480
 H    5.179027   -0.246811    0.493693
 H    1.752357   -2.701235   -0.395425
 H    4.198597   -2.482931    0.032364
 H   -3.914387    0.902341    0.216767
 H   -2.504656    1.336407    1.196969
 H   -4.046172   -0.869944    1.840485
 H   -2.294158   -0.912786    2.050634
 H   -3.857336   -2.442470    0.045924
 H   -2.131387   -2.552627    0.419980
 H   -1.858899   -1.515592   -1.710244
 H   -3.499848   -0.832572   -1.658260
