49 
3hx3_ligand_aiqm1.xyz
 C    5.187293    7.859930   11.155944
 C    5.967760    9.183534   11.225513
 C    6.377773    9.539154   12.645563
 C    7.329648    8.472280   13.166714
 C    6.850771    7.067065   12.894284
 C    5.892068    6.784037   11.990544
 C    5.463539    5.374655   11.740414
 C    4.382519    4.791125   12.274349
 C    3.940459    3.404299   12.045391
 C    3.006093    2.898430   12.881233
 C    2.427939    1.563344   12.778009
 C    1.576992    0.958849   13.637555
 C    1.106852    1.431293   14.953441
 C    1.921456    2.108381   15.798445
 C    1.515383    2.598963   17.114470
 O    2.256667    3.219878   17.853017
 C    3.751619    8.063996   11.676230
 C    5.104843    7.437800    9.682282
 C    7.555269    6.012863   13.707064
 C    4.533054    2.608103   10.912933
 C   -0.316029    1.075709   15.315402
 H    5.358048    9.972090   10.774458
 H    6.870516    9.089435   10.610948
 H    5.495145    9.602818   13.287591
 H    6.857648   10.519475   12.672420
 H    7.491429    8.585187   14.240601
 H    8.312600    8.585628   12.696321
 H    6.097217    4.790925   11.068791
 H    3.759162    5.356652   12.963398
 H    2.643682    3.543491   13.674931
 H    2.675938    1.016242   11.872042
 H    1.161361    0.004095   13.331549
 H    2.948313    2.311380   15.519189
 H    0.477680    2.390406   17.430540
 H    3.250061    8.846188   11.097709
 H    3.170241    7.144942   11.573895
 H    3.740947    8.354937   12.728720
 H    4.501700    6.536855    9.557462
 H    4.641203    8.238099    9.098094
 H    6.102858    7.250958    9.277232
 H    7.468055    6.239373   14.771689
 H    7.147517    5.018752   13.533387
 H    8.621316    6.001801   13.467485
 H    5.234708    1.853320   11.274050
 H    3.758005    2.085964   10.351403
 H    5.063215    3.248765   10.211819
 H   -0.381401    0.582747   16.285682
 H   -0.945051    1.966715   15.356458
 H   -0.742982    0.405468   14.570240
