49 
3hx3_ligand_ani-2x.xyz
 C    5.468010    7.856793   10.828552
 C    6.234302    9.179483   11.033477
 C    6.251853    9.614090   12.494831
 C    6.950459    8.551579   13.342469
 C    6.521922    7.140515   13.027592
 C    5.828775    6.832055   11.909443
 C    5.296956    5.476668   11.663715
 C    4.389767    4.853439   12.438522
 C    3.812557    3.530530   12.182336
 C    2.856117    3.061287   13.016339
 C    2.058232    1.861917   12.792744
 C    1.173184    1.301606   13.648311
 C    1.098268    1.385223   15.109198
 C    2.190807    1.644849   15.859573
 C    2.163128    1.744170   17.325782
 O    3.150675    1.940734   18.001742
 C    3.950908    8.109418   10.881088
 C    5.820094    7.308759    9.440050
 C    6.982797    6.128133   14.039972
 C    4.329909    2.757169   11.009092
 C   -0.252716    1.109607   15.729666
 H    5.778280    9.949342   10.397042
 H    7.268756    9.052529   10.680293
 H    5.224432    9.761647   12.854809
 H    6.760171   10.579084   12.603204
 H    6.796750    8.742007   14.413315
 H    8.039299    8.606388   13.187302
 H    5.636446    4.984575   10.749028
 H    4.006940    5.350882   13.329857
 H    2.624635    3.634319   13.913268
 H    2.128530    1.414299   11.803756
 H    0.387024    0.685376   13.213089
 H    3.159591    1.759952   15.386805
 H    1.168243    1.633127   17.806291
 H    3.641502    8.754733   10.050698
 H    3.407144    7.162809   10.801343
 H    3.648738    8.589517   11.819096
 H    5.196025    6.449321    9.181746
 H    5.649910    8.078678    8.677922
 H    6.872053    7.003551    9.387376
 H    6.481383    6.292345   15.003042
 H    6.795251    5.099262   13.727718
 H    8.059825    6.233616   14.224785
 H    3.973422    1.724837   11.004997
 H    4.031328    3.222561   10.062465
 H    5.423860    2.724325   11.022795
 H   -0.206323    0.282833   16.448220
 H   -0.634150    1.990268   16.259983
 H   -0.983970    0.846193   14.962162
