81 
3hxb_ligand_xtb.xyz
 C    3.897950    1.090801    3.715075
 C    4.181733    1.517368    4.996103
 C    3.767796    2.777892    5.414961
 O    4.064494    3.166992    6.685686
 C    3.074444    3.595480    4.532189
 C    2.795443    3.155261    3.251381
 C    3.197891    1.898744    2.825305
 C    2.897892    1.418031    1.434458
 C    1.898045    0.247592    1.419027
 C    0.457497    0.686519    1.676736
 O    0.340382    1.660975    2.564582
 O   -0.487013    0.163163    1.142516
 N    1.927429   -0.464867    0.155177
 C    1.501671    0.157175   -0.969509
 O    1.360210    1.355940   -1.075970
 C    1.182855   -0.828988   -2.105400
 C    1.218869   -0.145373   -3.473501
 C    2.640418    0.053098   -3.921164
 C    3.290336   -0.934407   -4.650503
 C    4.607511   -0.770411   -5.040861
 C    5.292671    0.383548   -4.701226
 C    4.653965    1.370495   -3.969946
 C    3.335817    1.206397   -3.582646
 N   -0.144119   -1.364270   -1.844897
 C   -0.359577   -2.308825   -0.919061
 O    0.528826   -2.869071   -0.295695
 C   -1.850505   -2.642042   -0.734668
 C   -2.026662   -3.994424   -0.039439
 C   -3.481813   -4.316186    0.142718
 C   -4.116459   -4.107617    1.358068
 C   -5.465797   -4.371140    1.511009
 C   -6.207915   -4.848580    0.438850
 O   -7.536835   -5.123146    0.540412
 C   -5.580731   -5.061502   -0.785144
 C   -4.234492   -4.795254   -0.924010
 N   -2.494022   -1.602956    0.044152
 C   -2.799257   -0.397197   -0.472620
 O   -2.649662   -0.091545   -1.638797
 O   -3.360118    0.388756    0.460200
 C   -3.667175    1.731136    0.070927
 C   -2.519922    2.655170    0.386251
 C   -1.486150    2.824323   -0.525433
 C   -0.423172    3.660653   -0.232720
 C   -0.384229    4.335373    0.975383
 C   -1.402990    4.160117    1.898363
 C   -2.464485    3.318218    1.606648
 H    4.235780    0.114204    3.398652
 H    4.725587    0.893707    5.687585
 H    3.728955    4.058205    6.839853
 H    2.754201    4.579326    4.850580
 H    2.252735    3.796988    2.574893
 H    3.814859    1.054821    0.963592
 H    2.500253    2.228465    0.825188
 H    2.164810   -0.461969    2.210174
 H   -0.587240    1.952126    2.636873
 H    1.775573   -1.470539    0.189051
 H    1.890079   -1.665878   -2.068712
 H    0.682069   -0.768717   -4.190747
 H    0.712883    0.817709   -3.385729
 H    2.758577   -1.836637   -4.918790
 H    5.100046   -1.544028   -5.611992
 H    6.320708    0.512972   -5.006467
 H    5.184668    2.272485   -3.701827
 H    2.838759    1.971998   -3.006683
 H   -0.941347   -0.807634   -2.147653
 H   -2.333363   -2.649530   -1.719083
 H   -1.539295   -4.754704   -0.651830
 H   -1.511085   -3.958098    0.921440
 H   -3.552155   -3.744158    2.204929
 H   -5.946124   -4.206245    2.466952
 H   -7.842437   -4.933651    1.435598
 H   -6.166663   -5.435612   -1.609362
 H   -3.756326   -4.966912   -1.877311
 H   -2.451640   -1.671607    1.048047
 H   -4.558547    2.000945    0.642668
 H   -3.887994    1.746039   -1.001396
 H   -1.514301    2.294075   -1.464525
 H    0.375952    3.773999   -0.947234
 H    0.436519    5.000714    1.199588
 H   -1.373471    4.681988    2.844325
 H   -3.262474    3.183535    2.323886
