30 
3hzm_ligand_aiqm1.xyz
 C   -3.090351   -0.175453    0.454224
 O   -3.369870   -1.418582    0.880903
 O   -3.759389    0.785943    0.708978
 C   -1.822170   -0.166708   -0.400292
 O   -1.932109   -1.138713   -1.409551
 C   -1.577630    1.177003   -1.049530
 C   -0.217894    1.182135   -1.743430
 O    0.070697    2.427168   -2.335646
 C    0.854837    0.801735   -0.726820
 O    0.945666    1.893534    0.173954
 C    0.507970   -0.538803   -0.077412
 O   -0.798352   -0.504477    0.517678
 C    1.440873   -0.981136    1.043143
 O    1.440898   -0.044028    2.123550
 C    2.891822   -1.102056    0.619395
 O    3.670240   -1.615385    1.678496
 H   -4.192465   -1.363665    1.381231
 H   -2.220685   -1.963810   -1.005673
 H   -1.589550    1.943852   -0.274994
 H   -2.372121    1.392961   -1.764110
 H   -0.217513    0.445030   -2.546605
 H    0.289618    3.029733   -1.617301
 H    1.810127    0.675269   -1.249464
 H    1.279605    1.571226    1.017718
 H    0.523408   -1.305877   -0.862994
 H    1.091515   -1.952182    1.404423
 H    0.576485   -0.083787    2.540114
 H    3.267944   -0.124274    0.293475
 H    2.979674   -1.803325   -0.209324
 H    3.519021   -1.043130    2.435467
