46 
3i5n_ligand_ani-2x.xyz
 N   19.914739   13.598874   57.120332
 N   21.212765   15.379252   57.252872
 C   20.210232   14.744079   57.830310
 C   17.138332   11.993740   58.753373
 C   15.968865   12.378770   59.412296
 C   14.971019   11.450512   59.686629
 C   15.131652   10.119880   59.310270
 C   17.285040   10.660381   58.362797
 C   21.978888   10.804846   56.495820
 C   24.270127   10.720294   57.185784
 C   21.719709    9.861139   57.536212
 C   20.185801    8.631162   58.705465
 C   21.771004    6.661900   61.327918
 O   20.776402    7.211546   60.486020
 C   21.196252    8.086222   59.541218
 C   22.498141    8.472868   59.351236
 N   20.434191    9.478628   57.734889
 C   22.794880    9.406960   58.326440
 N   24.070616    9.837204   58.142693
 C   23.272571   11.244171   56.335851
 N   20.911482   11.161768   55.700855
 C   20.865442   12.475523   55.087738
 C   20.812006   13.595895   56.080282
 N   18.960669   12.698404   57.400357
 N   21.579506   14.651295   56.163349
 C   19.429487   15.010207   58.989105
 C   18.443485   14.125770   59.285846
 C   18.220581   12.972071   58.451910
 C   16.291379    9.728410   58.651320
 H   15.819362   13.416542   59.702535
 H   14.067727   11.768207   60.200882
 H   14.354568    9.392997   59.529193
 H   18.184532   10.338726   57.847309
 H   25.297620   11.059909   57.054848
 H   19.155695    8.325618   58.891108
 H   22.512467    6.094117   60.751985
 H   22.281557    7.442780   61.905366
 H   21.248416    5.990000   62.009066
 H   23.322743    8.108710   59.954312
 H   23.544811   11.967660   55.572040
 H   20.037955   10.887479   56.136080
 H   19.985794   12.492891   54.434589
 H   21.743369   12.623641   54.449876
 H   19.632435   15.890276   59.584764
 H   17.833025   14.274060   60.170869
 H   16.420561    8.691315   58.347190
