46 
3i5n_ligand_aiqm1.xyz
 N   19.830917   13.734541   56.871044
 N   20.864419   15.663907   56.584658
 C   19.950199   15.036256   57.298019
 C   17.255483   12.198515   58.872969
 C   16.030915   12.605506   59.416183
 C   15.146112   11.661999   59.930435
 C   15.476472   10.308662   59.914270
 C   17.575578   10.836221   58.846347
 C   21.915453   10.855180   56.775452
 C   23.975757   11.138403   57.984100
 C   21.682593    9.718390   57.609311
 C   20.330586    7.971429   58.200996
 C   21.765808    5.974713   60.886706
 O   20.863514    6.435818   59.890037
 C   21.248220    7.537396   59.199110
 C   22.407576    8.242453   59.387178
 N   20.530129    9.012105   57.436001
 C   22.652234    9.378091   58.575362
 N   23.801216   10.086542   58.765138
 C   23.084046   11.572305   56.984666
 N   20.996414   11.135564   55.805199
 C   20.983981   12.363289   55.048556
 C   20.732440   13.605916   55.851315
 N   18.983636   12.784795   57.348500
 N   21.351110   14.754817   55.683088
 C   19.122468   15.448917   58.375851
 C   18.266159   14.523937   58.874801
 C   18.210375   13.187874   58.323589
 C   16.691583    9.899472   59.369048
 H   15.750414   13.651802   59.411395
 H   14.198644   11.986058   60.339357
 H   14.788475    9.578345   60.318521
 H   18.517657   10.529021   58.413516
 H   24.891145   11.701107   58.142457
 H   19.414100    7.401424   58.072876
 H   22.728561    5.705635   60.448163
 H   21.916670    6.732192   61.658484
 H   21.302603    5.094986   61.322131
 H   23.151371    7.980750   60.124890
 H   23.323371   12.445311   56.397483
 H   20.144689   10.602310   55.856173
 H   20.201154   12.269814   54.292064
 H   21.928025   12.509337   54.528143
 H   19.200923   16.454568   58.761565
 H   17.627192   14.762580   59.708523
 H   16.947512    8.848446   59.347530
