43 
3i7b_ligand_xtb.xyz
 N   20.987275   12.560870   63.560861
 C   22.248647   12.932202   63.384710
 N   22.729349   14.143458   63.214835
 C   21.778171   15.083890   63.220313
 C   20.392030   14.841549   63.387884
 C   20.032802   13.491084   63.568904
 C   23.375007   18.115977   64.026069
 C   23.119343   17.857896   61.529020
 N   18.756732   13.072115   63.705994
 C   13.862768   14.311231   64.946436
 C   14.322508   14.833619   63.729143
 C   18.023721   15.529065   67.065939
 C   18.504288   16.027169   65.849455
 C   14.667029   14.353508   66.048735
 C   16.779923   14.969323   67.131498
 C   15.573623   15.375298   63.632588
 C   18.364775   16.494372   63.419973
 N   20.742462   17.040376   63.137100
 C   17.754882   15.974075   64.698721
 C   19.809118   16.135154   63.319420
 C   15.961589   14.911458   65.985300
 C   16.441024   15.428055   64.747705
 C   23.163879   17.136680   62.873887
 N   21.931026   16.412386   63.075450
 H   22.973550   12.128301   63.388639
 H   24.301770   18.665011   63.885864
 H   22.546164   18.818639   64.062508
 H   23.424570   17.582573   64.972602
 H   22.985450   17.143049   60.720484
 H   22.287401   18.557685   61.518847
 H   24.045185   18.401937   61.365088
 H   18.624475   12.103798   63.943724
 H   18.036162   13.731835   63.947438
 H   12.872471   13.884603   65.004180
 H   13.677285   14.808579   62.863329
 H   18.647895   15.587667   67.945082
 H   19.492536   16.462241   65.814136
 H   14.323107   13.963782   66.996218
 H   16.399679   14.571217   68.060996
 H   15.892602   15.781154   62.684994
 H   18.282955   17.583913   63.383638
 H   17.851616   16.087100   62.546717
 H   23.951254   16.375404   62.871677
