43 
3i7c_ligand_xtb.xyz
 N   16.704480   11.758623   62.979973
 C   17.775006   12.423379   62.568037
 N   17.881403   13.702646   62.291280
 C   16.751723   14.386084   62.515125
 C   15.551386   13.824872   63.018901
 C   15.571577   12.425880   63.194605
 C   16.759761   18.035591   61.728497
 C   18.647750   16.743678   62.775294
 C   17.936131   16.237037   60.420419
 N   14.500663   11.702322   63.587595
 C    8.855478   14.399323   65.891147
 C    9.765142   13.561064   66.554711
 C   12.365682   15.847214   62.907461
 C    9.265890   15.164910   64.835339
 C   11.069182   13.500051   66.150749
 C   11.067106   15.913294   63.317370
 C   12.859648   14.227931   64.620489
 N   15.264986   16.016875   62.639155
 C   13.280193   14.982961   63.549987
 C   14.657034   14.932236   63.080142
 C   10.603901   15.126337   64.394517
 C   11.523283   14.275442   65.062711
 N   16.518515   15.697645   62.304808
 C   17.464629   16.684865   61.806074
 H   18.665999   11.826757   62.420118
 H   16.394713   18.328721   62.708779
 H   17.453606   18.788957   61.365959
 H   15.910087   17.980984   61.053688
 H   18.310551   17.041365   63.765973
 H   19.117413   15.765685   62.841366
 H   19.380727   17.464880   62.424564
 H   18.408384   15.260642   60.490706
 H   17.092993   16.172861   59.735663
 H   18.653988   16.949699   60.023950
 H   14.596623   10.701752   63.553283
 H   13.582405   12.110373   63.557603
 H    7.828513   14.434726   66.224199
 H    9.424221   12.964549   67.388346
 H   12.726658   16.449770   62.088580
 H    8.569624   15.813401   64.322542
 H   11.773603   12.856051   66.658563
 H   10.369092   16.573034   62.821572
 H   13.562951   13.612033   65.163961
