66 
3i7i_ligand_xtb.xyz
 C    3.535238   -1.278689    0.470274
 C    2.425449   -0.479335    0.190828
 C    1.160449   -1.021362    0.170486
 C    0.962746   -2.380665    0.428738
 C    2.078281   -3.173542    0.707921
 C    3.347063   -2.635839    0.729672
 C   -0.370066   -2.943533    0.405176
 C   -0.822894   -4.225553    0.631802
 C   -2.217739   -4.192638    0.474576
 C   -2.540659   -2.894839    0.161425
 O   -1.416760   -2.137662    0.119376
 C   -3.845923   -2.289923   -0.107342
 O   -4.888729   -2.932374   -0.073630
 N   -3.804720   -0.968587   -0.380633
 C   -4.998611   -0.192158   -0.653707
 C   -5.356819   -0.390881   -2.143582
 C   -4.788311    1.282167   -0.300166
 N   -5.935646   -1.580915   -2.369400
 O   -5.113347    0.431443   -3.003367
 N    4.788092   -0.674931    0.475877
 C   -6.273048   -2.039241   -3.694770
 C   -4.319109    1.443915    1.147430
 C   -4.113513    2.917797    1.485201
 C   -5.404916    3.700315    1.272771
 C   -5.886439    3.539909   -0.165338
 C   -6.086405    2.066159   -0.505784
 C    6.011796   -1.232639    0.719350
 C    7.105281   -0.249396    0.627817
 O    6.218296   -2.399389    0.984397
 O    6.823191    1.056763    0.326714
 C    8.442895   -0.445807    0.806837
 C    9.063315    0.819961    0.607247
 C    8.008680    1.709913    0.313006
 C    8.226239    3.054337    0.055383
 C    9.533319    3.495619    0.098326
 C   10.590205    2.628510    0.388049
 C   10.374938    1.293080    0.644043
 H    2.563362    0.573806   -0.011269
 H    0.309957   -0.393726   -0.046730
 H    1.949517   -4.224625    0.909788
 H    4.200285   -3.256311    0.945820
 H   -0.231500   -5.082175    0.879877
 H   -2.910229   -5.002435    0.575177
 H   -2.912066   -0.522056   -0.520242
 H   -5.801587   -0.619554   -0.041058
 H   -4.030892    1.687058   -0.980339
 H   -5.977268   -2.250605   -1.607426
 H    4.790484    0.316222    0.269532
 H   -5.648898   -2.887160   -3.984488
 H   -7.320986   -2.339855   -3.732936
 H   -6.105172   -1.214737   -4.386133
 H   -5.073792    1.020964    1.815095
 H   -3.388250    0.897560    1.313681
 H   -3.331543    3.330855    0.843542
 H   -3.782673    3.015680    2.521503
 H   -6.170922    3.326721    1.956190
 H   -5.242245    4.756446    1.497466
 H   -6.824752    4.079541   -0.307032
 H   -5.148231    3.969058   -0.846006
 H   -6.866325    1.646493    0.134788
 H   -6.408016    1.970368   -1.542791
 H    8.910414   -1.377573    1.049101
 H    7.407002    3.718844   -0.167716
 H    9.745708    4.535744   -0.096525
 H   11.595557    3.021259    0.409929
 H   11.191046    0.624006    0.867598
