66 
3i7i_ligand_aiqm1.xyz
 C    3.544600   -1.304312    0.495962
 C    2.442242   -0.535810    0.104094
 C    1.165297   -1.074113    0.107601
 C    0.961404   -2.400570    0.504359
 C    2.068041   -3.161065    0.895036
 C    3.352961   -2.630768    0.895809
 C   -0.372696   -2.981729    0.508207
 C   -0.852679   -4.237092    0.764273
 C   -2.265766   -4.176707    0.592948
 C   -2.551804   -2.891668    0.247643
 O   -1.403380   -2.148301    0.190820
 C   -3.830278   -2.234665   -0.057141
 O   -4.886847   -2.865769   -0.082416
 N   -3.748975   -0.910345   -0.301174
 C   -4.924982   -0.131753   -0.673628
 C   -5.110641   -0.273402   -2.199014
 C   -4.836657    1.323598   -0.223564
 N   -5.598424   -1.477450   -2.561911
 O   -4.811535    0.614223   -2.983966
 N    4.803494   -0.685057    0.463584
 C   -5.822460   -1.842096   -3.945972
 C   -4.516211    1.436112    1.270112
 C   -4.464145    2.894188    1.722088
 C   -5.775659    3.609578    1.410071
 C   -6.099176    3.506965   -0.077727
 C   -6.153331    2.049529   -0.525600
 C    6.011280   -1.218584    0.795818
 C    7.135472   -0.275094    0.639414
 O    6.199770   -2.357700    1.189422
 O    6.869027    0.997178    0.192528
 C    8.452121   -0.474226    0.877918
 C    9.104784    0.772690    0.560619
 C    8.078117    1.632146    0.146696
 C    8.285533    2.946971   -0.251723
 C    9.598502    3.394275   -0.223136
 C   10.653338    2.560411    0.186308
 C   10.424852    1.251691    0.579919
 H    2.585619    0.492937   -0.207740
 H    0.330167   -0.461184   -0.201863
 H    1.924980   -4.187110    1.207399
 H    4.192593   -3.235625    1.201481
 H   -0.269158   -5.098307    1.036137
 H   -2.995961   -4.959620    0.704299
 H   -2.837730   -0.492006   -0.391420
 H   -5.771591   -0.606866   -0.177199
 H   -4.040493    1.805958   -0.800377
 H   -5.720189   -2.163321   -1.829259
 H    4.829871    0.272519    0.156711
 H   -5.208178   -2.697459   -4.228142
 H   -6.870208   -2.088121   -4.119576
 H   -5.547713   -0.989321   -4.560779
 H   -5.296793    0.909849    1.831134
 H   -3.570069    0.938239    1.506486
 H   -3.644705    3.405854    1.205593
 H   -4.244875    2.945238    2.790746
 H   -6.582635    3.144180    1.985915
 H   -5.723625    4.655034    1.721417
 H   -7.048804    3.999296   -0.296929
 H   -5.329794    4.031115   -0.652757
 H   -6.961223    1.534237    0.009780
 H   -6.378190    1.984645   -1.591510
 H    8.865080   -1.402845    1.232903
 H    7.470508    3.583084   -0.565701
 H    9.813282    4.410183   -0.523964
 H   11.661445    2.950747    0.192980
 H   11.242999    0.617192    0.893355
