45 
3i8t_ligand_ani-2x.xyz
 C   -1.060181   -0.257240    0.513168
 C   -2.391107    0.370185    0.898088
 C   -3.527433   -0.620143    0.685434
 C   -3.528800   -1.128010   -0.756409
 C   -2.140897   -1.656395   -1.112500
 C   -1.969933   -2.001967   -2.584697
 O   -0.054876    0.710935    0.612527
 O   -2.430981    0.757330    2.259284
 O   -4.774604    0.013487    0.902510
 O   -3.846709   -0.068754   -1.629280
 O   -1.149490   -0.671701   -0.832912
 O   -0.680272   -2.515573   -2.834319
 C    3.974584    1.113285   -0.261550
 C    3.119488    0.543063   -1.381111
 C    1.652185    0.841945   -1.115502
 C    1.255869    0.281156    0.260941
 C    2.219306    0.814931    1.323400
 C    2.038795    0.172886    2.689908
 O    3.813031    2.507231   -0.243016
 O    3.539734    1.089053   -2.603855
 O    0.932016    0.266725   -2.192612
 O    3.580299    0.530416    0.959474
 O    2.920425    0.734731    3.632136
 H   -0.823446   -1.121423    1.159692
 H   -2.559819    1.226937    0.231770
 H   -3.400592   -1.470348    1.376044
 H   -4.260938   -1.948429   -0.849540
 H   -1.923824   -2.552230   -0.508031
 H   -2.681568   -2.786988   -2.864174
 H   -2.187676   -1.112501   -3.193050
 H   -1.773173    1.456198    2.365285
 H   -4.673473    0.546322    1.705488
 H   -4.597307    0.387759   -1.219444
 H   -0.035291   -1.823992   -2.615978
 H    5.028269    0.849414   -0.416250
 H    3.249360   -0.553187   -1.379939
 H    1.502979    1.931719   -1.096054
 H    1.316321   -0.818693    0.233337
 H    2.079279    1.900915    1.410365
 H    2.189927   -0.916235    2.596961
 H    1.022851    0.342806    3.058524
 H    4.388071    2.853890    0.452181
 H    2.848257    0.860181   -3.240617
 H   -0.004386    0.279031   -1.934922
 H    3.805529    0.641177    3.252942
