55 
3ia6_ligand_xtb.xyz
 O   -7.084926   -1.910531   -0.559610
 C   -6.416773   -1.073043    0.238774
 O   -6.904816   -0.536955    1.190309
 C   -4.976790   -0.897108   -0.233173
 N   -4.305548    0.055940    0.598639
 N   -3.928995   -0.208653    1.822581
 C   -3.390673    0.919645    2.255916
 C   -3.469877    1.857607    1.223874
 N   -4.055542    1.274364    0.189502
 C   -4.223452   -2.240721   -0.223577
 C   -2.833687   -2.038380   -0.760154
 C   -2.613989   -1.953667   -2.129577
 C   -1.348461   -1.707129   -2.625107
 C   -0.268817   -1.533363   -1.766445
 C   -0.490571   -1.631293   -0.399633
 C   -1.756840   -1.878416    0.099726
 C    1.092688   -1.210796   -2.308583
 C    1.154187    0.212623   -2.877460
 C    0.766344    1.271991   -1.843493
 C    1.678139    1.251979   -0.666508
 N    3.036948    1.200075   -0.805074
 C    3.519595    1.199334    0.403864
 O    2.558049    1.248446    1.352064
 C    1.382598    1.280762    0.669428
 C    0.110898    1.350866    1.429650
 C    4.917718    1.150670    0.768767
 C    5.886919    1.091617   -0.232881
 C    7.224727    1.046867    0.104673
 C    7.609261    1.060268    1.437002
 C    6.649329    1.118605    2.434635
 C    5.307903    1.163718    2.107205
 H   -7.999098   -2.017544   -0.251003
 H   -4.994583   -0.478906   -1.245630
 H   -2.985135    1.007969    3.241779
 H   -3.144171    2.875775    1.185053
 H   -4.778504   -2.949890   -0.838702
 H   -4.184050   -2.604010    0.804177
 H   -3.442235   -2.085601   -2.811784
 H   -1.194343   -1.648118   -3.692957
 H    0.338523   -1.509875    0.282093
 H   -1.914112   -1.941772    1.166783
 H    1.348222   -1.914882   -3.104355
 H    1.838519   -1.307852   -1.518347
 H    2.172381    0.410894   -3.213283
 H    0.481756    0.295183   -3.733459
 H    0.822162    2.257131   -2.315106
 H   -0.260052    1.115364   -1.505922
 H   -0.048660    2.357194    1.818156
 H    0.140350    0.664315    2.273871
 H   -0.721853    1.089244    0.782981
 H    5.564485    1.083137   -1.261815
 H    7.974276    1.001605   -0.671651
 H    8.656805    1.025567    1.697754
 H    6.949243    1.129340    3.472360
 H    4.554726    1.210109    2.879374
