55 
3ia6_ligand_ani-2x.xyz
 O   -6.963608   -1.764276   -0.434501
 C   -6.359006   -0.971659    0.478197
 O   -6.936748   -0.514988    1.426981
 C   -4.891979   -0.761336    0.086418
 N   -4.241805    0.189930    0.964170
 N   -3.688598   -0.165670    2.108034
 C   -3.294429    0.989117    2.647630
 C   -3.643372    2.023263    1.767486
 N   -4.248802    1.485831    0.708981
 C   -4.111580   -2.085383    0.011886
 C   -2.756079   -1.912573   -0.627798
 C   -2.655698   -1.681256   -2.001303
 C   -1.418132   -1.534028   -2.614291
 C   -0.234529   -1.605591   -1.875671
 C   -0.336390   -1.841303   -0.501619
 C   -1.574908   -1.982029    0.113645
 C    1.112303   -1.420593   -2.537565
 C    1.294631   -0.070714   -3.253844
 C    0.990887    1.154262   -2.378273
 C    1.770512    1.173703   -1.099885
 N    3.161302    1.162159   -1.092120
 C    3.487446    1.167412    0.160306
 O    2.425409    1.174729    0.999801
 C    1.324528    1.182629    0.186591
 C   -0.009974    1.203353    0.829373
 C    4.827331    1.160698    0.755536
 C    5.944541    1.150160   -0.080680
 C    7.220801    1.143857    0.469487
 C    7.383340    1.148185    1.852918
 C    6.267852    1.158901    2.688109
 C    4.989614    1.165227    2.143182
 H   -7.883341   -1.857412   -0.136634
 H   -4.907052   -0.282380   -0.898992
 H   -2.792997    1.017323    3.607488
 H   -3.493773    3.093713    1.839852
 H   -4.714931   -2.782822   -0.575855
 H   -4.024474   -2.502382    1.019870
 H   -3.563597   -1.616480   -2.600800
 H   -1.373589   -1.360849   -3.688958
 H    0.571783   -1.896555    0.096727
 H   -1.636085   -2.143627    1.188849
 H    1.278538   -2.224189   -3.269258
 H    1.900863   -1.529525   -1.782026
 H    2.326833   -0.006877   -3.615503
 H    0.651080   -0.033758   -4.141542
 H    1.205988    2.067292   -2.948152
 H   -0.081852    1.181381   -2.145327
 H   -0.188068    2.132569    1.382862
 H   -0.106479    0.371000    1.536273
 H   -0.787030    1.089329    0.068432
 H    5.799365    1.147007   -1.157928
 H    8.091598    1.135566   -0.180885
 H    8.382023    1.143243    2.281662
 H    6.395894    1.162349    3.767937
 H    4.114644    1.173768    2.786426
