69 
3ibc_ligand_ani-2x.xyz
 C   -1.103272   -0.421496   -1.292230
 O   -1.667045   -1.370237   -0.730787
 C   -0.482835   -0.575573   -2.663009
 N   -0.974030    0.807488   -0.740620
 C   -1.588073    1.241410    0.516518
 C   -0.818939    0.632016    1.701105
 O   -0.032116    1.299184    2.360166
 C   -3.110990    1.000136    0.551983
 C   -3.829725    1.716788   -0.568239
 C   -4.217491    1.029395   -1.721387
 C   -4.094165    3.083261   -0.498929
 C   -4.853126    1.678293   -2.771520
 C   -4.732240    3.750664   -1.539616
 C   -5.113246    3.045175   -2.680257
 O   -5.741034    3.636432   -3.735427
 N   -1.050169   -0.690917    1.934081
 C   -0.114096   -1.440274    2.752443
 C    1.208500   -1.702517    2.018730
 O    2.292301   -1.548210    2.583106
 C   -0.746943   -2.734256    3.298236
 C   -1.162300   -3.729436    2.208809
 C    0.201560   -3.395509    4.298641
 N    1.128046   -2.125477    0.734974
 C    2.315932   -2.341063   -0.079464
 C    2.771852   -0.983328   -0.644159
 O    2.662197   -0.710157   -1.845321
 C    2.033407   -3.349038   -1.181315
 N    3.238768   -0.111467    0.268318
 C    3.512006    1.306615    0.005411
 C    2.225678    2.106417   -0.283250
 O    1.612415    1.839099   -1.532838
 C    4.583292    1.494296   -1.069059
 C    5.173322    2.883234   -1.053929
 O    4.992209    3.726104   -0.205348
 O    5.973990    3.088878   -2.114630
 H   -1.079191   -1.286028   -3.240723
 H    0.528351   -0.978455   -2.557717
 H   -0.424816    0.378961   -3.195509
 H   -0.236920    1.402610   -1.121153
 H   -1.399075    2.315441    0.583519
 H   -3.482003    1.343547    1.525491
 H   -3.309865   -0.070828    0.479423
 H   -4.008323   -0.037372   -1.792649
 H   -3.799363    3.642698    0.387752
 H   -5.159405    1.145676   -3.667094
 H   -4.932270    4.818774   -1.464057
 H   -5.859833    4.575749   -3.546077
 H   -1.524118   -1.185925    1.186087
 H    0.162167   -0.799650    3.593584
 H   -1.654075   -2.411191    3.826190
 H   -0.289156   -4.174657    1.717717
 H   -1.793047   -3.280193    1.430409
 H   -1.736389   -4.549197    2.655545
 H   -0.268796   -4.271157    4.758127
 H    0.485720   -2.702434    5.098462
 H    1.122424   -3.722558    3.802675
 H    0.220623   -2.176917    0.282001
 H    3.095596   -2.702847    0.601032
 H    1.702217   -4.297839   -0.747023
 H    1.250076   -2.979376   -1.854366
 H    2.929140   -3.529968   -1.780592
 H    3.224810   -0.420091    1.237524
 H    3.912773    1.701346    0.943462
 H    1.506810    1.911221    0.527264
 H    2.463195    3.174361   -0.269389
 H    1.934281    0.970876   -1.843903
 H    4.197420    1.277154   -2.067098
 H    5.405027    0.790000   -0.893293
 H    6.322476    3.991541   -2.022811
