69 
3ibc_ligand_aiqm1.xyz
 C   -1.183153   -0.503888   -1.366832
 O   -1.710180   -1.417503   -0.721217
 C   -0.689780   -0.711440   -2.774923
 N   -0.972124    0.720545   -0.844077
 C   -1.459162    1.196453    0.446920
 C   -0.676488    0.555651    1.609039
 O    0.156664    1.198382    2.226392
 C   -2.982966    1.066401    0.609117
 C   -3.726266    1.758202   -0.503225
 C   -4.327248    1.018581   -1.526519
 C   -3.796300    3.149908   -0.574383
 C   -4.978949    1.639793   -2.585191
 C   -4.445377    3.785914   -1.627307
 C   -5.035746    3.029852   -2.635251
 O   -5.684266    3.597041   -3.696837
 N   -0.975129   -0.740701    1.877716
 C   -0.114792   -1.527719    2.751691
 C    1.229714   -1.834104    2.072874
 O    2.286293   -1.714750    2.679545
 C   -0.834525   -2.783582    3.268425
 C   -1.251974   -3.749835    2.159324
 C    0.018431   -3.501326    4.311774
 N    1.188983   -2.198663    0.765636
 C    2.405259   -2.279247   -0.031538
 C    2.695135   -0.877630   -0.597227
 O    2.510758   -0.607000   -1.783825
 C    2.261219   -3.312987   -1.128190
 N    3.119462    0.008682    0.320241
 C    3.430842    1.419733    0.059332
 C    2.189981    2.244056   -0.293092
 O    1.643135    1.982063   -1.585184
 C    4.541712    1.539601   -0.987606
 C    5.104817    2.931256   -1.064051
 O    4.935164    3.811084   -0.257698
 O    5.873382    3.088075   -2.159501
 H   -1.257839   -1.515127   -3.235635
 H    0.360875   -0.994060   -2.749309
 H   -0.780424    0.200590   -3.363011
 H   -0.395300    1.364828   -1.369810
 H   -1.205091    2.252284    0.491144
 H   -3.241072    1.507344    1.573200
 H   -3.269594    0.016261    0.634734
 H   -4.278743   -0.064339   -1.496015
 H   -3.340201    3.757178    0.199134
 H   -5.443880    1.062513   -3.373055
 H   -4.487990    4.868959   -1.662260
 H   -5.647324    4.551540   -3.607654
 H   -1.504603   -1.216581    1.159390
 H    0.144830   -0.902503    3.603791
 H   -1.740719   -2.410712    3.756302
 H   -0.381531   -4.251132    1.732100
 H   -1.795763   -3.266574    1.347032
 H   -1.897100   -4.523655    2.574983
 H   -0.537360   -4.332086    4.747383
 H    0.316829   -2.827211    5.114868
 H    0.927403   -3.902709    3.858266
 H    0.299603   -2.222452    0.286261
 H    3.211577   -2.542877    0.651946
 H    2.099565   -4.296800   -0.691389
 H    1.415388   -3.064312   -1.766190
 H    3.152880   -3.333445   -1.751507
 H    3.115524   -0.306638    1.282432
 H    3.806921    1.824774    0.996673
 H    1.428834    2.063565    0.474207
 H    2.465861    3.298962   -0.264366
 H    1.951783    1.108574   -1.866567
 H    4.177233    1.252512   -1.970877
 H    5.373166    0.868927   -0.749549
 H    6.209837    3.992703   -2.127001
