36 
3ieo_ligand_dft.xyz
 C    1.034943   -1.177927   -0.692498
 N    1.597325    1.180144   -0.193058
 O    1.287492   -2.207770   -0.088476
 C    2.064293   -0.033350   -0.845388
 C    3.408890   -0.418690   -0.244943
 C    4.419231   -0.802907    1.834929
 C    0.313219    3.222008    0.104031
 O    0.282475    1.891061   -1.892824
 C   -4.220482    0.475740    1.385682
 C   -4.649801   -0.369967    0.367982
 C   -2.856158    0.627961    1.622351
 C   -3.719540   -1.054322   -0.410142
 C   -1.929967   -0.061073    0.846642
 C   -1.345708   -1.679916   -1.013841
 N   -0.153466   -0.909305   -1.291039
 O    3.315915   -0.266923    1.151411
 C    0.732518    2.054276   -0.760975
 C   -2.352311   -0.910328   -0.178745
 H    1.898679    1.293927    0.764914
 H    2.184029    0.185500   -1.912300
 H    4.201354    0.233917   -0.644460
 H    3.633470   -1.459380   -0.509776
 H    4.257212   -0.624364    2.899691
 H    4.504814   -1.884547    1.660842
 H    5.359133   -0.318490    1.527821
 H    0.235638    4.113654   -0.520696
 H    0.998967    3.413650    0.933814
 H   -0.682135    3.007886    0.508095
 H   -4.943368    1.015550    1.990078
 H   -5.711066   -0.493218    0.172721
 H   -2.512422    1.283474    2.417906
 H   -4.061494   -1.706619   -1.210484
 H   -0.866772    0.063247    1.034262
 H   -1.017513   -2.580962   -0.486731
 H   -1.810051   -1.999625   -1.953586
 H   -0.257322    0.000556   -1.734834
