36 
3ieo_ligand_aiqm1.xyz
 C   -0.610239   -0.206487   -1.512082
 N   -1.972227    0.641303    0.360948
 O    0.111967    0.373653   -2.309962
 C   -1.971887    0.362855   -1.062951
 C   -2.329043    1.642886   -1.806445
 C   -0.783337    3.372998   -2.236501
 C   -2.105734    0.169756    2.729276
 O   -2.426618   -1.473094    1.006013
 C    3.585807   -0.907147    2.140900
 C    3.039623   -2.187139    2.089916
 C    3.305802    0.003038    1.124173
 C    2.213960   -2.549910    1.028745
 C    2.480002   -0.360729    0.063206
 C    0.989950   -2.014426   -1.120076
 N   -0.321780   -1.397430   -0.956139
 O   -1.599594    2.729282   -1.268654
 C   -2.194019   -0.302627    1.297890
 C    1.926093   -1.643693    0.008517
 H   -1.694221    1.572381    0.625966
 H   -2.725260   -0.399902   -1.259914
 H   -3.396204    1.846305   -1.674034
 H   -2.123589    1.520433   -2.869050
 H   -0.239794    4.160503   -1.717124
 H   -0.080084    2.667751   -2.679433
 H   -1.401021    3.823306   -3.020884
 H   -2.758579   -0.444427    3.342312
 H   -2.376236    1.220680    2.828702
 H   -1.080573    0.036456    3.078086
 H    4.226937   -0.622402    2.964773
 H    3.253795   -2.901029    2.875256
 H    3.730371    0.998469    1.157147
 H    1.784238   -3.544440    0.991315
 H    2.255814    0.346174   -0.726876
 H    1.387680   -1.676895   -2.075136
 H    0.862573   -3.098715   -1.157473
 H   -0.964372   -1.757538   -0.260609
