25 
3ig1_ligand_ani-2x.xyz
 C   11.525566   19.555380   12.735163
 O   11.562291   18.984277   11.664280
 C   10.814594   20.898652   12.834619
 O    9.973341   21.170761   11.998800
 C   11.142516   21.839469   13.911912
 C   12.177561   21.863373   14.785785
 C   13.295608   20.919833   14.863035
 C   13.343118   19.648737   14.452664
 C   12.159236   18.869337   13.945382
 O   12.528408   17.573117   13.582747
 C   12.323989   24.379490   15.084504
 C   12.225837   23.016363   15.780264
 C   11.022831   22.981158   16.728230
 H   10.424285   22.655816   13.938934
 H   14.176256   21.307423   15.374951
 H   14.265623   19.080070   14.540242
 H   11.396673   18.820856   14.745080
 H   12.429829   17.536622   12.614682
 H   11.428514   24.595773   14.491756
 H   12.423710   25.179017   15.827630
 H   13.188476   24.422813   14.413956
 H   13.129359   22.884936   16.386182
 H   11.099277   23.778822   17.476071
 H   10.083027   23.126693   16.184628
 H   10.958976   22.021611   17.251304
