47 
3ig7_ligand_xtb.xyz
 C   -1.598831   30.702620    7.745927
 N   -0.319833   30.246597    7.291518
 C    0.468652   29.323228    7.928692
 C    1.585699   29.192609    7.148080
 N    2.701448   28.391829    7.334843
 C    2.872831   27.533049    8.368858
 C    4.202018   26.783637    8.316508
 C    4.491836   26.256602    6.941240
 C    5.374481   26.904193    6.089838
 C    5.613084   26.438814    4.806499
 C    4.956985   25.302430    4.349602
 O    5.110404   24.753252    3.113629
 C    5.993341   25.369298    2.208381
 C    4.064957   24.646752    5.201268
 C    3.837604   25.119515    6.474163
 O    2.063867   27.387566    9.261580
 N    1.499695   30.006683    6.060835
 C    0.350864   30.618963    6.179667
 C   -1.642649   31.184675    9.211263
 C   -2.714951   30.121887    9.532043
 N   -2.381638   29.189578   10.568060
 C   -3.191289   28.941654   11.629886
 C   -2.623153   27.917831   12.588085
 O   -4.258531   29.493194   11.780550
 C   -2.610989   29.588845    8.087470
 H   -1.969994   31.434663    7.026175
 H    0.208943   28.839738    8.843474
 H    3.394119   28.445573    6.601014
 H    4.146280   25.972098    9.043380
 H    4.985178   27.476568    8.633782
 H    5.901355   27.785601    6.430006
 H    6.310866   26.970825    4.179365
 H    5.682230   26.393085    1.976321
 H    7.019634   25.378108    2.589937
 H    5.952891   24.767665    1.301779
 H    3.563394   23.765181    4.835041
 H    3.143867   24.604006    7.121621
 H   -0.026512   31.337574    5.480313
 H   -1.956952   32.215878    9.347477
 H   -0.705031   31.026543    9.740375
 H   -3.691994   30.532651    9.791476
 H   -1.502953   28.699818   10.494305
 H   -1.669755   28.262878   12.982106
 H   -3.318562   27.769957   13.408663
 H   -2.466259   26.971832   12.074522
 H   -2.183128   28.590300    8.024473
 H   -3.534818   29.615255    7.516010
