41 
3igg_ligand_aiqm1.xyz
 C   -1.527287   31.445282    8.452321
 N   -0.382892   30.869224    7.785218
 O   -2.591714   31.535262   11.637473
 C    0.673849   30.176600    8.351876
 N    0.969389   30.315278    6.111517
 O    2.843820   28.759461    9.514978
 C   -0.151691   30.918402    6.453375
 N    2.685950   29.160673    7.288103
 O    4.771864   25.354359    3.083831
 C   -2.379108   30.566654    9.390136
 C   -1.305669   32.420606    9.626638
 C    1.478057   29.856491    7.293532
 C   -2.577534   31.810887   10.258497
 C    3.291897   28.642029    8.387391
 C    4.621707   27.935034    8.131925
 C    4.725490   27.249534    6.798945
 C    4.103862   26.015179    6.575910
 C    5.389572   27.845871    5.732821
 C    4.139644   25.409083    5.331454
 C    5.435723   27.251898    4.466565
 C    4.802631   26.026866    4.266265
 C    5.406961   25.973590    1.979411
 H   -2.155874   31.904393    7.692598
 H   -2.746887   32.351718   12.114750
 H    0.768860   29.976528    9.402223
 H   -0.830169   31.404640    5.772771
 H    3.075817   28.965095    6.380578
 H   -1.749953   29.861711    9.931571
 H   -3.253324   30.057989    8.986031
 H   -1.261784   33.488923    9.412591
 H   -0.434004   32.116971   10.205564
 H   -3.466294   32.372530    9.954768
 H    4.751550   27.233193    8.953909
 H    5.398736   28.700573    8.228341
 H    3.575134   25.533253    7.388929
 H    5.883773   28.800728    5.880167
 H    3.653686   24.458571    5.157985
 H    5.955500   27.756053    3.664724
 H    4.954465   26.942281    1.754920
 H    6.476487   26.106390    2.160123
 H    5.263060   25.302595    1.137777
