41 
3igg_ligand_dft.xyz
 C   -4.372228   -1.234413    0.040024
 N   -2.934177   -1.120653    0.014400
 O   -6.792337    1.092552    0.100032
 C   -2.200718    0.049842   -0.037053
 N   -0.797546   -1.727674   -0.002035
 O   -0.661564    2.449171   -0.168809
 C   -2.043735   -2.143194    0.033152
 N    0.281309    0.383833   -0.090423
 O    6.044389   -1.250664    0.551511
 C   -5.164616   -0.449083    1.107931
 C   -5.196389   -0.515633   -1.050368
 C   -0.894448   -0.364677   -0.045532
 C   -6.244862   -0.196439    0.045315
 C    0.333977    1.741636   -0.148943
 C    1.734315    2.360479   -0.210265
 C    2.902814    1.423657   -0.040901
 C    3.379019    1.090328    1.234215
 C    3.513671    0.823981   -1.139565
 C    4.424723    0.199227    1.401269
 C    4.567848   -0.077142   -0.992490
 C    5.028354   -0.392387    0.285845
 C    6.677844   -1.883579   -0.537281
 H   -4.607529   -2.301339    0.076049
 H   -7.438697    1.178019   -0.610602
 H   -2.638397    1.032371   -0.060698
 H   -2.359200   -3.177227    0.073084
 H    1.137487   -0.152531   -0.068685
 H   -4.665856    0.494883    1.346497
 H   -5.440434   -0.963270    2.031060
 H   -5.496442   -1.092316   -1.929331
 H   -4.701586    0.408653   -1.363222
 H   -7.027531   -0.968074    0.081199
 H    1.745515    3.143843    0.554564
 H    1.789795    2.879412   -1.173876
 H    2.917080    1.538499    2.110462
 H    3.162193    1.060687   -2.141040
 H    4.794773   -0.057462    2.388279
 H    5.014408   -0.518018   -1.876144
 H    5.973172   -2.500085   -1.110115
 H    7.149076   -1.154223   -1.208829
 H    7.447753   -2.524448   -0.106247
