132 
3ihz_ligand_xtb.xyz
 C   -1.097295   -2.452182    1.246548
 C    0.152703   -2.622665    0.377383
 C   -0.074757   -2.103956   -1.049226
 C   -1.018248   -3.013933   -1.825034
 C   -0.455737   -4.430078   -1.817304
 C   -0.317262   -4.910167   -0.378707
 C    1.446722   -4.562939    1.205178
 C    2.417090   -3.680746    1.993832
 C    3.629759   -3.207353    1.118709
 C    4.114367   -4.257119    0.088631
 C    5.219004   -3.616225   -0.753337
 C    4.711840   -2.333891   -1.411440
 C    4.168198   -1.403556   -0.317626
 C    3.601725   -0.117158   -0.936316
 C    3.024657    0.836658    0.116869
 C    4.084314    1.591547    0.927139
 C    3.521919    2.128680    2.260349
 C    2.629871    3.346034    2.155241
 C    1.435357    3.277437    1.578881
 C    0.433003    4.386096    1.394668
 C   -0.941150    3.739325    1.147701
 C   -1.321297    2.773773    2.286785
 C   -2.169087    1.618320    1.754536
 C   -2.331330    0.487702    2.794180
 C   -2.624998   -0.862802    2.102622
 C   -3.873062   -0.879205    1.246128
 C   -3.804581   -0.638211   -0.061359
 C   -4.954187   -0.624647   -1.023046
 C   -4.914353    0.652992   -1.868584
 C   -6.072713    0.676165   -2.868930
 C   -6.022773   -0.565514   -3.773797
 C   -6.044618   -1.839352   -2.934649
 C   -4.888825   -1.850906   -1.942740
 C    4.633287   -5.536917    0.739297
 C    4.706017    2.722984    0.112476
 C    3.188884    4.592237    2.774029
 C    0.863296    5.282920    0.217554
 C    0.218589    6.669318    0.208545
 C    0.780463    7.593383    1.282405
 C   -3.364214    0.834380    3.860256
 C   -5.156504   -1.207294    1.956655
 C    6.079527   -2.169395   -3.341562
 C    2.494971    0.414485   -2.964619
 C   -6.404069    3.018423   -3.167356
 N    0.549474   -4.013814    0.375401
 O   -1.460887   -1.172762    1.314509
 O   -1.662497   -3.346824    1.816767
 O    1.569152   -5.774003    1.346683
 O    2.890794   -4.417175    3.085980
 O    3.163844   -2.056697    0.443438
 O    4.671027   -2.860856    1.986588
 O    5.727127   -1.624070   -2.095226
 O    2.610853   -0.480165   -1.888454
 O   -1.944763    4.716919    0.996455
 O   -3.404100    2.161619    1.328252
 O   -6.031766    1.791890   -3.743997
 O   -7.120888   -0.581107   -4.652185
 H    0.951159   -2.014285    0.805407
 H   -0.469794   -1.090233   -0.983286
 H    0.896694   -2.047810   -1.541737
 H   -1.126153   -2.651593   -2.848944
 H   -2.005501   -3.014387   -1.355630
 H   -1.113104   -5.111257   -2.358818
 H    0.522105   -4.436505   -2.302813
 H    0.130786   -5.903805   -0.332460
 H   -1.299091   -4.949710    0.102516
 H    1.941781   -2.778634    2.392223
 H    3.263870   -4.489173   -0.562120
 H    6.063506   -3.364885   -0.108581
 H    5.555728   -4.325707   -1.511678
 H    3.888409   -2.570200   -2.104553
 H    5.002032   -1.136176    0.342979
 H    4.442391    0.356049   -1.461609
 H    2.388384    1.555607   -0.400659
 H    2.398486    0.239843    0.781183
 H    4.873209    0.879004    1.189477
 H    2.975008    1.317665    2.747956
 H    4.369865    2.380067    2.900144
 H    1.130175    2.330979    1.157708
 H    0.361842    4.993679    2.299534
 H   -0.864676    3.160539    0.208633
 H   -0.426821    2.376880    2.763017
 H   -1.892530    3.332500    3.029356
 H   -1.642394    1.184513    0.889575
 H   -1.356875    0.359650    3.276981
 H   -2.717959   -1.642659    2.870091
 H   -2.841094   -0.444120   -0.513620
 H   -5.901536   -0.652506   -0.477811
 H   -4.972281    1.529915   -1.219509
 H   -3.976169    0.705187   -2.425564
 H   -7.032338    0.678679   -2.324485
 H   -5.085415   -0.516591   -4.352763
 H   -5.987700   -2.698276   -3.603496
 H   -6.999972   -1.889328   -2.409344
 H   -3.942091   -1.842097   -2.486948
 H   -4.925387   -2.761361   -1.341611
 H    5.328917   -5.296937    1.539488
 H    3.816866   -6.133592    1.134414
 H    5.156550   -6.134723   -0.003944
 H    5.165797    2.340666   -0.795289
 H    3.945817    3.451010   -0.162499
 H    5.475931    3.227173    0.692130
 H    3.433224    4.409854    3.820747
 H    4.109623    4.878986    2.266904
 H    2.491538    5.420714    2.717902
 H    1.949302    5.399433    0.248172
 H    0.613948    4.767527   -0.713187
 H   -0.856138    6.561232    0.343779
 H    0.395004    7.123472   -0.769895
 H    1.860450    7.689837    1.180947
 H    0.559012    7.217412    2.278267
 H    0.339350    8.583701    1.194417
 H   -3.021353    1.692031    4.432255
 H   -3.504640    0.001521    4.544750
 H   -4.318519    1.089648    3.408779
 H   -4.977983   -1.420906    3.005544
 H   -5.617153   -2.085102    1.506928
 H   -5.866706   -0.384098    1.888865
 H    6.571016   -3.142972   -3.242174
 H    5.199432   -2.280964   -3.987254
 H    6.775611   -1.465922   -3.795462
 H    3.440727    0.496874   -3.514359
 H    2.193048    1.416174   -2.638150
 H    1.727476    0.008315   -3.621969
 H   -6.461304    3.733853   -3.985712
 H   -7.383311    2.944344   -2.678889
 H   -5.667996    3.370025   -2.437350
 H    2.700385   -5.352093    2.874427
 H    4.465879   -3.264543    2.845330
 H   -2.786944    4.242633    0.994567
 H   -3.915928    1.448914    0.923741
 H   -7.174654    0.297039   -5.049836
