64 
3ijy_ligand_dft.xyz
 C   -5.237780    0.843357   -0.496012
 O   -5.807113    1.902899   -0.426915
 O   -5.760612   -0.239938   -1.084839
 C   -3.859700    0.540972    0.126658
 C   -4.022140   -0.395151    1.328608
 C   -2.663918   -0.913328    1.815297
 O   -2.820100   -1.894347    2.813738
 C   -1.886489   -1.485884    0.629495
 O   -2.590069   -2.647315    0.239879
 C   -1.796018   -0.433056   -0.479473
 O   -3.099823   -0.038813   -0.899926
 C   -1.035919   -0.862235   -1.748246
 O   -1.126568   -2.259845   -2.014426
 C    0.427102   -0.463718   -1.681846
 O    0.961753   -1.203303   -0.585011
 O   -3.257385    1.713090    0.611170
 C   -2.875567    2.638420   -0.334151
 C   -1.734149    3.311032   -0.225718
 C   -0.703137    3.135495    0.848467
 C    2.930533   -2.089632   -1.689682
 O    2.099354   -3.104943   -2.007328
 O    3.988920   -1.906686   -2.224596
 C    2.360103   -1.272561   -0.512894
 C    2.700803   -1.977583    0.806127
 C    2.352455   -1.082245    1.996991
 O    2.877328   -1.598455    3.207206
 C    3.001889    0.292200    1.820653
 O    4.403143    0.182715    1.901989
 C    2.593026    0.859464    0.466739
 O    2.943934   -0.019025   -0.599869
 C    3.152057    2.233523    0.128446
 O    2.327427    2.764249   -0.890460
 C    4.601793    2.222007   -0.344137
 O    4.855306    3.549229   -0.798954
 H   -6.634083    0.025992   -1.415251
 H   -4.539367    0.131718    2.134483
 H   -4.627041   -1.249143    1.014050
 H   -2.093322   -0.094355    2.264522
 H   -3.095002   -2.694337    2.340966
 H   -0.865896   -1.736626    0.952608
 H   -2.339400   -2.829152   -0.681262
 H   -1.282279    0.443477   -0.062107
 H   -1.506560   -0.344394   -2.588973
 H   -0.326585   -2.659753   -1.637571
 H    0.931025   -0.745288   -2.615467
 H    0.554104    0.613568   -1.530415
 H   -3.586655    2.807516   -1.136391
 H   -1.545786    4.069093   -0.981264
 H    0.295979    3.070120    0.402476
 H   -0.699439    3.990747    1.535678
 H   -0.898599    2.238189    1.444391
 H    2.530919   -3.601440   -2.721498
 H    2.166214   -2.931584    0.856063
 H    3.777622   -2.168319    0.821372
 H    1.263809   -0.952935    2.068095
 H    2.486897   -2.464070    3.374417
 H    2.614857    0.964380    2.602823
 H    4.582038   -0.369360    2.676809
 H    1.500057    0.975387    0.496035
 H    3.081284    2.856334    1.035176
 H    2.846407    3.482388   -1.284352
 H    4.706579    1.495594   -1.157342
 H    5.265703    1.939678    0.478629
 H    5.642917    3.534029   -1.351909
