34 
3ijz_ligand_xtb.xyz
 C   29.869311   -9.188970   30.093339
 C   29.668547   -9.766947   31.353060
 C   28.532538  -10.492823   31.659075
 C   27.526526  -10.683066   30.715219
 C   27.713078  -10.119571   29.472293
 C   28.861431   -9.383394   29.161573
 C   28.742954   -8.923603   27.760409
 C   26.836903  -10.148526   28.281340
 N   27.514055   -9.413877   27.302914
 C   31.106170   -8.408749   29.797065
 O   29.516570   -8.279889   27.098384
 O   25.759288  -10.666912   28.147477
 C   27.013151   -9.188398   26.002548
 C   26.362973  -10.214472   25.323696
 C   25.859790   -9.995196   24.057051
 C   26.006849   -8.753148   23.441279
 C   26.669743   -7.737154   24.131860
 C   27.165266   -7.942607   25.401653
 C   25.491911   -8.445185   22.081563
 C   24.757392   -9.547794   21.358909
 O   25.653931   -7.355707   21.578606
 H   30.432210   -9.636078   32.106218
 H   28.424076  -10.919183   32.645101
 H   26.635443  -11.247454   30.939257
 H   31.174305   -7.550617   30.464661
 H   31.987161   -9.027341   29.962589
 H   31.104366   -8.059348   28.769572
 H   26.245551  -11.178286   25.792530
 H   25.357405  -10.805505   23.553222
 H   26.778872   -6.778048   23.648211
 H   27.672128   -7.147671   25.924323
 H   24.431865   -9.183110   20.388010
 H   25.412518  -10.404862   21.219307
 H   23.889823   -9.860608   21.935584
