33 
3ik1_ligand_aiqm1.xyz
 C  -30.072004    8.818371   30.146396
 C  -29.942089    9.192080   31.495101
 C  -28.886536    9.982094   31.948707
 C  -27.900690   10.443449   31.071206
 C  -28.029068   10.076625   29.746251
 C  -29.080956    9.286646   29.292411
 C  -27.151521   10.413371   28.593808
 N  -27.740195    9.784604   27.481668
 C  -28.908367    9.083138   27.825779
 C  -27.226975    9.851631   26.165943
 O  -29.593711    8.465632   27.046707
 O  -26.143135   11.072345   28.573319
 C  -31.208616    7.968430   29.663174
 C  -26.818512   11.077682   25.642989
 C  -26.317603   11.115500   24.349663
 C  -26.219349    9.961977   23.564486
 C  -26.648062    8.745665   24.109808
 C  -27.145053    8.690702   25.409219
 O  -26.597179    7.642916   23.322917
 C  -25.615285   10.023688   22.195167
 O  -26.059061   11.056249   21.425451
 O  -24.785434    9.275005   21.771034
 H  -30.688826    8.852916   32.203150
 H  -28.830972   10.242019   32.997865
 H  -27.075967   11.056933   31.403450
 H  -30.840336    7.046561   29.215179
 H  -31.879338    7.716742   30.484083
 H  -31.776636    8.483529   28.890083
 H  -26.857704   11.971389   26.248043
 H  -25.967205   12.058579   23.942596
 H  -27.488055    7.746359   25.815365
 H  -26.919337    6.888237   23.821186
 H  -26.784923   11.503136   21.872395
