33 
3ik1_ligand_ani-2x.xyz
 C  -30.041216    8.772868   30.188186
 C  -29.934266    9.184156   31.515451
 C  -28.921698   10.054437   31.945988
 C  -27.978779   10.545140   31.051066
 C  -28.084338   10.140053   29.730293
 C  -29.080706    9.273749   29.305748
 C  -27.237079   10.494485   28.565215
 N  -27.785904    9.800653   27.459981
 C  -28.910505    9.026891   27.853545
 C  -27.260062    9.855707   26.136193
 O  -29.565867    8.323068   27.118223
 O  -26.269134   11.217998   28.541840
 C  -31.125119    7.844512   29.724289
 C  -26.715098   11.048166   25.649748
 C  -26.215688   11.080630   24.361641
 C  -26.204940    9.948077   23.543298
 C  -26.742675    8.759637   24.051232
 C  -27.285408    8.721606   25.333443
 O  -26.759909    7.663652   23.258594
 C  -25.579845    9.996676   22.182978
 O  -25.812067   11.139072   21.487868
 O  -24.894575    9.131379   21.713315
 H  -30.660337    8.816288   32.236981
 H  -28.879235   10.345536   32.991969
 H  -27.186358   11.219562   31.361430
 H  -30.691675    6.944771   29.278467
 H  -31.778664    7.555919   30.551951
 H  -31.724865    8.320411   28.943120
 H  -26.688072   11.930883   26.274285
 H  -25.773173   12.005288   23.993743
 H  -27.741625    7.808990   25.699682
 H  -27.196254    6.947377   23.738937
 H  -26.473563   11.676561   21.945903
