67 
3ikc_ligand_dft.xyz
 C    3.853780   -1.168328   -1.486108
 O    3.801798   -2.194015   -2.115535
 O    4.833524   -0.262163   -1.627689
 C    2.860408   -0.769541   -0.377237
 C    3.531642   -0.973109    0.994002
 C    2.890241   -0.164939    2.144033
 O    3.762825   -0.117234    3.244177
 C    2.542135    1.257392    1.675202
 O    3.738602    1.988492    1.448867
 C    1.705484    1.122200    0.411446
 O    2.567403    0.594246   -0.600583
 C    0.981284    2.335936   -0.146745
 O    0.233989    1.848000   -1.241970
 C    1.862766    3.496861   -0.575553
 O    0.975575    4.510800   -1.018233
 C   -4.799550   -0.357391   -0.294127
 C   -3.350856   -0.209043    0.216519
 O   -2.963690    1.155124    0.039240
 C   -3.188144   -0.482735    1.709695
 C   -1.707336   -0.522779    2.105081
 O   -1.541811   -0.894604    3.452234
 C   -0.977838   -1.498951    1.186452
 O   -1.502864   -2.770168    1.501347
 C   -1.209394   -1.077011   -0.269021
 O   -2.605340   -1.074175   -0.579255
 C   -0.492805   -1.925865   -1.323130
 O   -0.525304   -3.284503   -0.923154
 C    0.915411   -1.412911   -1.602805
 O    1.717199   -1.558590   -0.427733
 C    0.105292   -4.191580   -1.799702
 C   -2.943846    1.656214   -1.233424
 C   -2.757466    2.958218   -1.455056
 C   -2.572679    4.002174   -0.390577
 O   -5.101701   -0.574083   -1.439029
 O   -5.697376   -0.152169    0.679957
 H    5.434867   -0.610234   -2.306268
 H    4.573329   -0.646264    0.909236
 H    3.539248   -2.038068    1.236714
 H    1.974215   -0.656365    2.487743
 H    4.389393    0.594613    3.040463
 H    1.998376    1.778717    2.468496
 H    4.046450    1.728991    0.566028
 H    0.919260    0.392440    0.619887
 H    0.307970    2.696220    0.647381
 H   -0.477457    2.473481   -1.442115
 H    2.478899    3.834133    0.268398
 H    2.522876    3.157899   -1.385603
 H    1.492157    5.218961   -1.416251
 H   -3.718047    0.278268    2.284399
 H   -3.633034   -1.456830    1.928712
 H   -1.268052    0.475537    1.997796
 H   -1.667606   -1.855353    3.468229
 H    0.101180   -1.468577    1.387337
 H   -1.186493   -3.372448    0.809422
 H   -0.839896   -0.052519   -0.393438
 H   -1.053506   -1.809256   -2.264890
 H    1.374849   -1.969645   -2.424518
 H    0.845220   -0.358621   -1.888020
 H   -0.177595   -5.192824   -1.469572
 H    1.197276   -4.095001   -1.763545
 H   -0.239568   -4.046333   -2.833310
 H   -3.069413    0.925020   -2.025936
 H   -2.747322    3.276669   -2.494358
 H   -3.334693    4.785633   -0.477240
 H   -1.594154    4.490771   -0.477939
 H   -2.650837    3.561667    0.606491
 H   -6.571711   -0.209191    0.261503
