67 
3ikc_ligand_ani-2x.xyz
 C    3.779742   -0.965429   -1.584045
 O    3.665761   -1.816505   -2.427764
 O    4.803214   -0.089895   -1.575016
 C    2.849515   -0.741242   -0.381222
 C    3.624804   -1.062556    0.901388
 C    3.089159   -0.353147    2.152866
 O    4.015743   -0.411621    3.208629
 C    2.743668    1.106845    1.833182
 O    3.935953    1.825032    1.561121
 C    1.785263    1.118686    0.654976
 O    2.503725    0.625375   -0.472456
 C    1.141104    2.456143    0.328411
 O    0.018539    2.174576   -0.497416
 C    2.049000    3.452488   -0.380945
 O    1.201062    4.549015   -0.729770
 C   -4.886803   -0.476229   -0.254555
 C   -3.429177   -0.173600    0.173721
 O   -3.150324    1.177944   -0.134008
 C   -3.219314   -0.357232    1.667071
 C   -1.740324   -0.348634    2.044837
 O   -1.550726   -0.637480    3.408711
 C   -1.025992   -1.380581    1.171972
 O   -1.595604   -2.621120    1.533153
 C   -1.249210   -1.010554   -0.296540
 O   -2.647330   -1.064383   -0.587067
 C   -0.517609   -1.902399   -1.303597
 O   -0.524220   -3.242751   -0.844623
 C    0.890742   -1.387310   -1.606773
 O    1.720389   -1.567061   -0.455562
 C   -0.047067   -4.184257   -1.784388
 C   -3.113736    1.553738   -1.452186
 C   -2.946052    2.821797   -1.807776
 C   -2.685419    3.963622   -0.873562
 O   -5.293489   -0.392362   -1.384863
 O   -5.681049   -0.851898    0.763044
 H    5.343805   -0.313359   -2.350502
 H    4.671008   -0.758419    0.775272
 H    3.626630   -2.146904    1.053252
 H    2.180967   -0.863439    2.503606
 H    4.651634    0.298431    3.027595
 H    2.292648    1.575091    2.718739
 H    4.184190    1.607393    0.646729
 H    0.946072    0.448197    0.876316
 H    0.791499    2.913705    1.268662
 H   -0.169799    3.000981   -0.967381
 H    2.867032    3.775533    0.276315
 H    2.465792    2.983185   -1.280864
 H    1.660004    5.084496   -1.386350
 H   -3.747764    0.433039    2.202861
 H   -3.648933   -1.316628    1.965738
 H   -1.313591    0.647334    1.866612
 H   -1.732561   -1.585839    3.499046
 H    0.054110   -1.394508    1.397750
 H   -1.378328   -3.242763    0.819263
 H   -0.903612    0.019380   -0.456838
 H   -1.104239   -1.853322   -2.232734
 H    1.316319   -1.921284   -2.463013
 H    0.833939   -0.322188   -1.867569
 H   -0.329056   -5.175646   -1.422468
 H    1.045006   -4.129362   -1.872220
 H   -0.501276   -4.022084   -2.772645
 H   -3.244407    0.744692   -2.170307
 H   -3.007747    3.039298   -2.871314
 H   -3.560771    4.623644   -0.801989
 H   -1.855739    4.589374   -1.225221
 H   -2.454410    3.592369    0.129603
 H   -6.554380   -1.011847    0.368695
