20 
3imc_ligand_ani-2x.xyz
 C   11.020512    9.309790   -4.978113
 C   15.195707   10.700292   -0.305075
 C   14.621817    9.706171   -4.729004
 C   13.900682   10.497027   -0.679619
 C   15.624484    9.993258   -3.827502
 C   12.895004    9.904655   -3.017025
 N   16.020874   10.546567   -1.399166
 O   12.384700    9.365580   -5.327389
 C   13.264610    9.661139   -4.330609
 C   13.908615   10.199243   -2.085640
 C   15.253095   10.239732   -2.500091
 H   10.482545    9.063822   -5.894925
 H   10.831253    8.533201   -4.225795
 H   10.665163   10.275465   -4.595883
 H   15.612386   10.945673    0.663321
 H   14.845558    9.506028   -5.772858
 H   13.032750   10.550905   -0.035071
 H   16.665719   10.026330   -4.139772
 H   11.856862    9.871859   -2.703803
 H   17.022664   10.646261   -1.392980
