18 
3ime_ligand_aiqm1.xyz
 O   15.396511   12.794637    3.311044
 O   15.580744   10.762616    2.427087
 C   13.824979    9.089912    8.709370
 C   14.003228    7.925857    7.937821
 C   14.007986   10.348604    8.164155
 C   14.368557    7.985874    6.602528
 C   14.659323   11.504449    5.888827
 O   14.905363    9.543967    4.787857
 C   15.340956   11.443564    3.378094
 C   14.964124   10.903508    4.709205
 C   14.378776   10.435229    6.811649
 C   14.548395    9.260398    6.070438
 H   15.173944   13.170523    4.166900
 H   13.539522    8.994863    9.747734
 H   13.851486    6.959551    8.397661
 H   13.869304   11.238842    8.762922
 H   14.508560    7.101178    5.999331
 H   14.633043   12.561627    6.092877
