20 
3img_ligand_xtb.xyz
 C   11.013048    9.301574   -5.001629
 C   15.209398   10.701296   -0.319554
 C   14.609286    9.708917   -4.704466
 C   13.913057   10.500069   -0.684529
 C   15.616902    9.994425   -3.815522
 C   12.901468    9.911118   -2.993850
 N   16.026997   10.547734   -1.403359
 O   12.380585    9.367023   -5.312432
 C   13.259751    9.665815   -4.303895
 C   13.913655   10.203417   -2.075400
 C   15.262578   10.242372   -2.494608
 H   10.508267    9.054566   -5.934601
 H   10.804596    8.521805   -4.260881
 H   10.637016   10.261453   -4.631060
 H   15.617386   10.945313    0.642962
 H   14.825151    9.508452   -5.741730
 H   13.054173   10.554327   -0.045604
 H   16.648035   10.024421   -4.135054
 H   11.876050    9.884260   -2.661700
 H   17.027599   10.644644   -1.400091
