20 
3img_ligand_aiqm1.xyz
 C   11.018509    9.308140   -4.983842
 C   15.198582   10.700555   -0.306920
 C   14.617267    9.706101   -4.726064
 C   13.897231   10.496968   -0.681322
 C   15.621337    9.992998   -3.825905
 C   12.893111    9.905100   -3.014626
 N   16.024172   10.547166   -1.396638
 O   12.387514    9.364057   -5.335405
 C   13.262221    9.661642   -4.326815
 C   13.910486   10.200370   -2.082164
 C   15.256040   10.240207   -2.498698
 H   10.482896    9.063130   -5.897116
 H   10.831975    8.534904   -4.233738
 H   10.666376   10.270316   -4.602308
 H   15.613418   10.945155    0.657725
 H   14.844292    9.507252   -5.764512
 H   13.041778   10.553510   -0.029744
 H   16.655463   10.023409   -4.146647
 H   11.861090    9.873994   -2.696857
 H   17.021242   10.648026   -1.385403
