48 
3imy_ligand_xtb.xyz
 O    8.846529   23.538315   24.285543
 C    8.636867   23.098524   25.377730
 O    9.217910   23.561500   26.476729
 C    7.661441   21.938462   25.618667
 O    7.629030   21.660759   26.998138
 C    6.829918   20.636107   27.456244
 C    6.860051   20.415525   28.827393
 C    6.099183   19.411629   29.399073
 C    6.154641   19.203150   30.881724
 C    5.292075   18.604085   28.589343
 C    5.253084   18.833213   27.214402
 C    6.024869   19.846502   26.655157
 C    4.390945   18.008876   26.301496
 C    4.461429   17.524269   29.230467
 C    3.279989   18.083619   29.986467
 C    2.846785   17.480800   31.159605
 C    1.757812   17.949393   31.876733
 C    1.309148   17.282473   33.154457
 C    0.885227   15.836043   32.893304
 C    2.411186   17.343064   34.213973
 C    1.079290   19.070426   31.389576
 O    0.004805   19.547964   32.085662
 C    1.502639   19.682014   30.217221
 C    2.592090   19.194275   29.520779
 H    8.902676   23.060328   27.251684
 H    8.009241   21.074024   25.037847
 H    6.675099   22.237570   25.240263
 H    7.488119   21.044374   29.439558
 H    6.578911   18.226846   31.115465
 H    6.771128   19.964501   31.351807
 H    5.155557   19.244353   31.312047
 H    5.980117   20.004207   25.588787
 H    4.732603   16.974195   26.279569
 H    3.353166   18.017156   26.630583
 H    4.431054   18.397509   25.287001
 H    5.082043   16.946824   29.919350
 H    4.092213   16.831148   28.472964
 H    3.380216   16.616405   31.527688
 H    0.441947   17.833246   33.528049
 H    0.102261   15.801390   32.139147
 H    1.725828   15.241573   32.543190
 H    0.504609   15.386677   33.807840
 H    3.287644   16.783248   33.896005
 H    2.708153   18.374018   34.393277
 H    2.054450   16.918571   35.149727
 H   -0.352865   20.318041   31.628597
 H    0.972025   20.551180   29.849017
 H    2.912262   19.690530   28.616954
