43 
3in3_ligand_ani-2x.xyz
 C   -4.253814   -2.429572    1.563510
 N   -3.291580   -1.749322    0.727470
 O   -2.387678   -0.375269    2.334061
 C   -2.410056   -0.799309    1.200179
 N   -2.019984   -1.261659   -1.044501
 C   -1.471138   -0.424258    0.028556
 N   -3.468185   -3.094333   -1.270196
 C   -2.989406   -2.138340   -0.584335
 N   -1.869709    3.814011   -0.788200
 C   -1.639588    1.065265   -0.270854
 N    5.696823    0.687621   -1.275429
 C   -1.421372    2.005787    0.733205
 C   -1.542789    3.354623    0.422056
 C   -2.094251    2.902450   -1.736432
 C   -2.000608    1.530465   -1.530581
 C   -0.014523   -0.811519    0.335998
 C    0.258976   -2.013301    0.992503
 C    1.573905   -2.409229    1.220223
 C    2.631527   -1.620279    0.784950
 C    2.381045   -0.419306    0.119314
 C    1.057173   -0.038947   -0.107536
 C    3.489439    0.459859   -0.324425
 C    3.391679    1.847560   -0.222588
 C    4.455562    2.638259   -0.631144
 C    5.582831    2.011474   -1.152653
 C    4.673060   -0.056109   -0.861498
 H   -5.256031   -2.366957    1.127004
 H   -4.248972   -1.932877    2.534014
 H   -3.985003   -3.484398    1.699698
 H   -1.373895   -1.646731   -1.717160
 H   -4.181124   -3.598782   -0.748305
 H   -1.179954    1.685333    1.742474
 H   -1.372068    4.109687    1.187166
 H   -2.366432    3.288780   -2.717629
 H   -2.208258    0.825905   -2.329065
 H   -0.556645   -2.642916    1.337615
 H    1.776217   -3.342827    1.737347
 H    3.656978   -1.923510    0.984804
 H    0.853342    0.873180   -0.662520
 H    2.491801    2.294147    0.196670
 H    4.409808    3.720956   -0.556493
 H    6.435075    2.597363   -1.491329
 H    4.787625   -1.132876   -0.985941
