43 
3in3_ligand_xtb.xyz
 C   -4.302012   -2.541217    1.152835
 N   -3.211702   -1.852559    0.511915
 O   -2.592848   -0.514226    2.260805
 C   -2.458421   -0.906546    1.128981
 N   -1.811661   -1.186350   -1.073444
 C   -1.425367   -0.427797    0.095525
 N   -3.193251   -2.951798   -1.640141
 C   -2.784955   -2.098685   -0.810280
 N   -1.986826    3.806297   -0.316225
 C   -1.622076    1.063949   -0.075618
 N    5.643211    0.403255   -1.384194
 C   -1.238908    1.925783    0.946480
 C   -1.447350    3.284072    0.772319
 C   -2.358890    2.982491   -1.279055
 C   -2.207167    1.605518   -1.212103
 C    0.000083   -0.752120    0.506475
 C    0.279689   -1.764197    1.414312
 C    1.594510   -2.061954    1.731494
 C    2.632899   -1.363874    1.145484
 C    2.367428   -0.351521    0.225768
 C    1.044463   -0.059925   -0.089628
 C    3.458976    0.403233   -0.401035
 C    3.371952    1.780058   -0.602595
 C    4.431727    2.444885   -1.193378
 C    5.549220    1.709993   -1.561638
 C    4.630341   -0.227801   -0.824232
 H   -5.229053   -2.384591    0.597967
 H   -4.403677   -2.128147    2.155459
 H   -4.094664   -3.611757    1.219091
 H   -1.195112   -1.318318   -1.856107
 H   -3.948206   -3.543754   -1.318898
 H   -0.800845    1.539746    1.852876
 H   -1.166359    3.992236    1.540503
 H   -2.801666    3.448972   -2.149337
 H   -2.534034    0.971502   -2.021546
 H   -0.523159   -2.311130    1.884857
 H    1.807112   -2.842891    2.445947
 H    3.654472   -1.587113    1.413968
 H    0.827344    0.709923   -0.816626
 H    2.493485    2.321736   -0.280379
 H    4.394542    3.510635   -1.357735
 H    6.408292    2.183003   -2.018364
 H    4.748265   -1.298915   -0.720507
