54 
3in4_ligand_aiqm1.xyz
 C   -3.406706    3.007896    1.357603
 N   -3.433227    0.509915   -0.394790
 O   -0.552277   -2.730171    2.489465
 C   -3.504082    1.544262    1.793536
 N    0.403010   -3.882495    0.751653
 C   -2.833372    0.629835    0.801286
 N    0.816113   -2.251704   -0.704266
 C   -1.636855   -0.014668    1.106483
 N    1.605458   -4.390016   -1.276979
 C   -1.036603   -0.833478    0.153896
 N    2.963462    3.878087   -2.155072
 C   -1.669653   -0.968773   -1.078888
 N    5.152846    3.582591   -1.251425
 C   -2.864497   -0.284114   -1.312842
 C   -3.563074   -0.369295   -2.644604
 C   -3.495929    0.962111   -3.395824
 C    0.276890   -1.556753    0.465432
 C   -0.025333   -2.758064    1.402297
 C    1.007406   -3.600197   -0.480755
 C    0.311172   -5.219116    1.294694
 C    1.314426   -0.584396    1.023967
 C    1.784371   -0.630577    2.338538
 C    2.752811    0.281996    2.757941
 C    3.263007    1.232500    1.878963
 C    2.795570    1.292583    0.561764
 C    1.824021    0.379427    0.152380
 C    3.320491    2.305150   -0.381578
 C    2.502504    2.961863   -1.302827
 C    4.269562    4.139390   -2.081599
 C    4.667098    2.669893   -0.408970
 H   -2.365038    3.333343    1.312137
 H   -3.939168    3.655241    2.055336
 H   -3.844614    3.130989    0.366607
 H   -3.055271    1.410229    2.780096
 H   -4.555164    1.257937    1.866034
 H    1.468348   -1.789670   -1.319858
 H   -1.195770    0.110673    2.086388
 H    1.611748   -5.341132   -0.924228
 H   -1.255631   -1.598696   -1.854588
 H   -3.116559   -1.166895   -3.243259
 H   -4.607980   -0.632396   -2.467810
 H   -4.046541    0.903819   -4.335371
 H   -3.930914    1.755232   -2.787227
 H   -2.461588    1.233160   -3.618702
 H   -0.223263   -5.867798    0.602086
 H    1.305789   -5.628664    1.475308
 H   -0.234790   -5.150125    2.231619
 H    1.393916   -1.357980    3.036149
 H    3.111803    0.251569    3.778155
 H    4.005258    1.943569    2.219397
 H    1.454112    0.414014   -0.866241
 H    1.439210    2.748437   -1.343571
 H    4.653449    4.881817   -2.769002
 H    5.379550    2.199843    0.261568
