56 
3ine_ligand_xtb.xyz
 C    4.008308   -1.064276   -2.199924
 N   -0.213924    3.250021    0.626492
 O    4.934619   -1.722196    0.279057
 C    3.232645   -0.705818   -0.970961
 N   -0.067175    1.936120   -1.140176
 O   -0.335661    1.742288    2.324522
 C    2.027474   -0.034399   -1.044411
 N    0.011651    4.203245   -1.582620
 C    1.298977    0.299151    0.094956
 C    1.818133   -0.058058    1.329552
 C    3.025009   -0.730430    1.428490
 C    3.741251   -1.061516    0.287636
 C    5.502091   -2.097737    1.509032
 C   -0.036384    1.020733   -0.020323
 C   -0.215342    1.995397    1.147075
 C   -0.070945    3.239740   -0.773290
 C   -0.343773    4.441355    1.423118
 C   -1.242716    0.023051   -0.098955
 C   -2.550915    0.823589   -0.105840
 C   -3.744977   -0.124905   -0.201896
 C   -3.744284   -1.061681    1.004162
 C   -2.449407   -1.870903    1.009290
 C   -1.248424   -0.929542    1.098389
 C   -2.355068   -2.695186   -0.272786
 C   -2.356331   -1.752591   -1.473809
 C   -3.650901   -0.942417   -1.488109
 C   -1.160355   -0.803746   -1.386498
 H    3.498391   -0.723987   -3.097113
 H    4.998993   -0.614570   -2.159261
 H    4.145669   -2.143164   -2.253303
 H    0.204941    1.684558   -2.071816
 H    1.659127    0.225543   -2.025675
 H   -0.037041    5.122010   -1.160873
 H    1.286339    0.192354    2.232936
 H    3.393405   -0.988209    2.408635
 H    4.855729   -2.791605    2.056429
 H    5.714299   -1.226975    2.137882
 H    6.437195   -2.598010    1.261230
 H    0.543973    5.069545    1.321638
 H   -1.226652    5.008687    1.120630
 H   -0.449624    4.127596    2.460758
 H   -2.629345    1.408792    0.813377
 H   -2.557313    1.516596   -0.950717
 H   -4.669703    0.463336   -0.209216
 H   -3.821447   -0.480712    1.925596
 H   -4.604626   -1.733225    0.956229
 H   -2.440995   -2.540755    1.876299
 H   -1.294050   -0.355731    2.024386
 H   -0.327841   -1.516512    1.107100
 H   -3.200765   -3.383499   -0.338859
 H   -1.438113   -3.289005   -0.266824
 H   -2.280689   -2.337295   -2.398070
 H   -4.509360   -1.613234   -1.566690
 H   -3.665226   -0.276780   -2.354301
 H   -1.165794   -0.144346   -2.256795
 H   -0.233349   -1.380891   -1.395585
