55 
3io7_ligand_dft.xyz
 N   -4.920136    0.540472    0.319845
 C   -4.059961    1.719100    0.374589
 C   -3.827235    2.217355    1.799610
 C   -4.483626   -0.752819    0.305283
 C   -2.979904   -0.996150    0.368615
 C   -2.662772   -2.338351    1.039792
 C   -0.140491   -0.152671   -0.799715
 C    1.975552    0.868508   -0.348953
 C    3.399712    0.831419   -0.066494
 C    4.248709   -0.274380   -0.004168
 C    5.100086   -2.382032   -0.027821
 C    6.595450   -0.563222    0.352639
 C   -6.850668    0.841271   -1.207513
 C   -6.358866    0.769829    0.235629
 O   -5.264386   -1.694224    0.206522
 C   -1.164841   -2.657455    0.964923
 C   -0.649810   -2.542686   -0.473823
 N   -0.966702   -1.226697   -1.023200
 C   -2.404410   -0.994840   -1.062096
 C    1.229172   -0.290547   -0.520124
 N    1.407819    2.098232   -0.448332
 C    0.110328    2.109167   -0.711754
 N   -0.700029    1.073333   -0.884797
 N    4.045736   -1.598641   -0.136981
 C    6.408613   -1.915365    0.218674
 N    5.522682    0.239629    0.241128
 N    5.544170    1.587473    0.345175
 C    4.265234    1.943183    0.164486
 N    3.891051    3.242007    0.244757
 H   -3.104086    1.521798   -0.116721
 H   -4.548053    2.501327   -0.218068
 H   -4.775704    2.437081    2.301124
 H   -3.222949    3.130532    1.792535
 H   -3.299938    1.463006    2.392837
 H   -2.478614   -0.195663    0.923067
 H   -2.996036   -2.323064    2.083125
 H   -3.243658   -3.119917    0.537977
 H    4.919319   -3.448343   -0.140409
 H    7.540241   -0.069068    0.541685
 H   -6.660667   -0.111632   -1.708688
 H   -6.339840    1.636887   -1.761530
 H   -7.926952    1.040907   -1.239163
 H   -6.861360   -0.044857    0.760301
 H   -6.580060    1.702494    0.766355
 H   -0.595446   -1.961043    1.594671
 H   -0.974215   -3.666845    1.346660
 H   -1.143056   -3.286927   -1.110570
 H    0.421182   -2.735327   -0.535785
 H   -2.601959   -0.058124   -1.580287
 H   -2.864712   -1.809221   -1.633520
 H    1.723353   -1.248644   -0.445046
 H   -0.355219    3.090365   -0.791261
 H    7.243654   -2.598711    0.300517
 H    4.612208    3.940224    0.161093
 H    2.953886    3.440017   -0.086921
