55 
3io7_ligand_ani-2x.xyz
 N   -4.621863   -0.073297    0.160459
 C   -4.101572    0.887451    1.124169
 C   -4.339882    0.479675    2.574954
 C   -3.891576   -1.072681   -0.429923
 C   -2.436035   -1.248597   -0.015439
 C   -2.014837   -2.713119   -0.126931
 C    0.727560    0.485215   -0.749783
 C    2.913795    1.456866   -0.645895
 C    4.324151    1.356375   -0.328688
 C    5.048700    0.230677    0.131943
 C    5.678614   -1.832535    0.848345
 C    7.365299   -0.164614    0.626543
 C   -6.148695    0.900526   -1.548542
 C   -6.011308    0.079358   -0.270383
 O   -4.381684   -1.792910   -1.290493
 C   -0.535120   -2.849252    0.216965
 C    0.303658   -1.933147   -0.664196
 N   -0.149246   -0.551069   -0.549393
 C   -1.549082   -0.374981   -0.909497
 C    2.084793    0.373266   -0.399804
 N    2.422122    2.598588   -1.190118
 C    1.125781    2.600584   -1.447714
 N    0.240045    1.627763   -1.251498
 N    4.704228   -1.038253    0.457548
 C    7.038326   -1.445402    0.952139
 N    6.361519    0.652609    0.221625
 N    6.536933    1.954589   -0.131743
 C    5.318021    2.377183   -0.455804
 N    5.108504    3.678489   -0.821389
 H   -3.033926    1.050513    0.939219
 H   -4.596808    1.848455    0.931881
 H   -5.409728    0.341241    2.769700
 H   -3.969156    1.254263    3.255213
 H   -3.830682   -0.458665    2.822583
 H   -2.295810   -0.928379    1.024523
 H   -2.625747   -3.332217    0.539223
 H   -2.215223   -3.056996   -1.149136
 H    5.393167   -2.850181    1.105197
 H    8.353771    0.277303    0.657044
 H   -5.638518    0.401895   -2.378110
 H   -5.716246    1.901415   -1.425534
 H   -7.205155    1.015797   -1.814469
 H   -6.424152   -0.922718   -0.420645
 H   -6.565147    0.554498    0.549869
 H   -0.373644   -2.582906    1.269237
 H   -0.199381   -3.885393    0.092480
 H    0.237321   -2.265465   -1.714805
 H    1.353348   -1.989256   -0.380474
 H   -1.800942    0.681989   -0.818903
 H   -1.712758   -0.653180   -1.963693
 H    2.500652   -0.500560    0.084667
 H    0.725341    3.518009   -1.871830
 H    7.791771   -2.149112    1.281968
 H    5.917687    4.196653   -1.124627
 H    4.218919    3.883440   -1.254935
