63 
3is9_ligand_ani-2x.xyz
 C   50.341730  -28.819629   38.300772
 O   51.460556  -30.508420   35.265045
 C   51.092864  -29.076842   37.157257
 O   45.911157  -33.033492   43.067350
 C   50.690132  -30.110637   36.304238
 O   50.389741  -23.551675   36.952952
 C   49.495834  -30.804056   36.570332
 C   48.739170  -30.499064   37.696638
 O   52.804719  -27.658756   37.910635
 C   49.149996  -29.498083   38.582158
 C   52.261483  -28.209596   36.813901
 O   47.742684  -34.735151   42.096788
 C   48.332062  -29.111434   39.767643
 C   48.177951  -27.823382   40.114570
 C   46.472405  -32.153662   42.206539
 C   45.823801  -30.925553   41.968395
 C   46.430869  -29.954918   41.178559
 C   47.679237  -30.184871   40.587677
 C   48.305181  -31.410278   40.826154
 C   47.714929  -32.402385   41.606609
 C   48.488129  -33.673442   41.758337
 C   48.355806  -26.589046   39.270423
 C   49.377774  -25.608665   39.867554
 C   49.562121  -24.354081   39.018981
 C   50.325109  -24.632712   37.741481
 C   51.121127  -23.722907   35.737772
 C   51.071898  -29.975553   34.001494
 C   44.783573  -33.734372   42.555230
 C   53.879775  -26.752804   37.652851
 C   48.476083  -35.954545   42.239180
 O   52.690483  -28.011046   35.699374
 O   49.681018  -33.746217   41.561660
 O   50.838939  -25.689959   37.446798
 N   48.709559  -32.680997   34.954875
 N   43.526980  -30.409935   43.068872
 C   49.067935  -31.847568   35.676084
 C   44.554993  -30.640672   42.586276
 H   50.682055  -28.046695   38.981173
 H   47.826284  -31.051348   37.887611
 H   47.854124  -27.612131   41.137229
 H   45.905077  -29.020963   41.009361
 H   49.277828  -31.624453   40.393477
 H   47.382881  -26.077429   39.229614
 H   48.619454  -26.835060   38.235275
 H   50.357085  -26.093377   39.969922
 H   49.050262  -25.328602   40.875563
 H   50.119463  -23.586765   39.572170
 H   48.597372  -23.902620   38.755368
 H   52.159869  -23.997266   35.948952
 H   50.673360  -24.508203   35.122286
 H   51.077752  -22.761580   35.226590
 H   50.047633  -30.270395   33.743474
 H   51.173523  -28.885332   34.001460
 H   51.763506  -30.406247   33.274477
 H   43.910637  -33.079206   42.465910
 H   45.010759  -34.185076   41.581717
 H   44.570796  -34.522266   43.281069
 H   54.734634  -27.281278   37.224022
 H   53.557420  -25.969383   36.964214
 H   54.139432  -26.325673   38.621161
 H   48.969877  -36.217759   41.300490
 H   49.234705  -35.853650   43.019052
 H   47.737811  -36.707938   42.512709
