30 
3jwr_ligand_ani-2x.xyz
 N   44.064748   15.039664   46.279513
 C   44.506607   16.070178   45.473700
 N   44.499399   17.221020   46.074652
 C   44.031797   16.950740   47.343244
 C   43.762782   15.618245   47.477771
 N   43.275016   15.006080   48.597055
 C   43.060972   15.782613   49.735670
 N   43.327533   17.150016   49.617186
 C   43.808321   17.840013   48.469890
 O   43.988770   19.041658   48.504540
 O   42.661966   15.305466   50.780381
 C   43.077924   17.932892   50.828692
 C   42.975446   13.579787   48.619172
 C   44.218452   12.680257   48.689802
 C   45.022288   12.922630   49.969306
 C   43.789607   11.215943   48.575693
 H   43.983374   14.063137   46.036178
 H   44.817840   15.900045   44.449893
 H   43.307770   18.971274   50.599420
 H   42.034685   17.832133   51.132157
 H   43.709594   17.576001   51.644007
 H   42.343330   13.417958   49.494293
 H   42.385688   13.335112   47.726970
 H   44.861526   12.914977   47.830263
 H   45.803565   12.162040   50.079350
 H   45.510722   13.901476   49.965465
 H   44.373155   12.872089   50.852523
 H   44.659785   10.550977   48.593035
 H   43.136343   10.932810   49.411136
 H   43.243995   11.031772   47.643041
