45 
3jyj_ligand_xtb.xyz
 C    1.943390   -0.885422    0.491415
 C    1.868611    0.550838    0.717311
 C    2.558657    1.484938   -0.055912
 C    2.390444    2.839251    0.159851
 C    1.528004    3.290043    1.146128
 C    0.843241    2.374586    1.927835
 C    1.017820    1.020606    1.720428
 C    1.106746   -3.228323   -1.796392
 C    2.271318   -2.976897   -0.789119
 C    1.568684   -2.881045   -3.194205
 O    2.440920   -3.766165   -3.673861
 O    1.216000   -1.905793   -3.804187
 C    2.434972   -1.507040   -0.579191
 C   -2.312094    3.494607    0.099535
 C   -3.375516    3.307395    0.997016
 C   -3.715532    2.050971    1.414712
 C   -1.607791    2.421899   -0.368843
 C   -1.933507    1.112779    0.044072
 C   -3.004858    0.923056    0.955774
 C   -3.306968   -0.387001    1.386936
 C   -2.573278   -1.451299    0.951817
 C   -1.511478   -1.271104    0.039780
 C   -1.207339   -0.007012   -0.405232
 C   -0.668479   -2.456050   -0.288036
 N   -0.034560   -2.404723   -1.486389
 O   -0.547729   -3.397622    0.473280
 H    1.485162   -1.487251    1.267162
 H    3.236480    1.149691   -0.826464
 H    2.932981    3.549747   -0.447374
 H    1.392456    4.349458    1.305687
 H    0.168628    2.717881    2.698419
 H    0.475584    0.309601    2.327523
 H    0.837300   -4.289219   -1.752913
 H    1.997833   -3.459361    0.149230
 H    3.177107   -3.439208   -1.183689
 H    2.737957   -3.509390   -4.561877
 H    2.877655   -0.956078   -1.398013
 H   -2.055618    4.495153   -0.216177
 H   -3.922083    4.167236    1.356239
 H   -4.531878    1.903507    2.107510
 H   -0.784996    2.558616   -1.055752
 H   -4.121508   -0.529438    2.082721
 H   -2.775563   -2.453724    1.297883
 H   -0.376723    0.171985   -1.073455
 H   -0.140356   -1.594879   -2.081583
