45 
3jyj_ligand_aiqm1.xyz
 C    2.205088   -0.738348    0.383276
 C    2.432960    0.705074    0.528824
 C    3.257754    1.443138   -0.330207
 C    3.398798    2.818064   -0.163226
 C    2.721302    3.480173    0.857656
 C    1.905070    2.755149    1.721809
 C    1.767609    1.380075    1.558568
 C    0.960546   -3.117409   -1.739910
 C    2.171345   -2.939706   -0.783504
 C    1.362437   -2.783288   -3.157116
 O    2.144880   -3.737318   -3.691222
 O    1.056037   -1.773747   -3.736980
 C    2.574467   -1.502523   -0.653991
 C   -3.005640    3.354831    0.379650
 C   -4.138552    3.015317    1.160520
 C   -4.386728    1.706924    1.487626
 C   -2.149342    2.378054   -0.058006
 C   -2.385337    1.016692    0.265276
 C   -3.517283    0.674662    1.051198
 C   -3.736333   -0.689360    1.386448
 C   -2.874485   -1.660854    0.958431
 C   -1.753777   -1.327764    0.155840
 C   -1.515773   -0.013459   -0.176551
 C   -0.835082   -2.437595   -0.239437
 N   -0.140510   -2.254826   -1.390053
 O   -0.719664   -3.457024    0.426683
 H    1.641497   -1.194755    1.196890
 H    3.797741    0.944024   -1.125034
 H    4.041236    3.373788   -0.834549
 H    2.832887    4.549072    0.980576
 H    1.376556    3.254337    2.522402
 H    1.134251    0.819196    2.234588
 H    0.646499   -4.158053   -1.687527
 H    1.857950   -3.325951    0.184371
 H    2.994108   -3.553455   -1.152820
 H    2.389959   -3.434732   -4.575207
 H    3.117184   -1.059548   -1.483201
 H   -2.820043    4.390565    0.129383
 H   -4.807853    3.795605    1.498408
 H   -5.251521    1.444977    2.085797
 H   -1.282240    2.634827   -0.654966
 H   -4.593363   -0.948770    1.997950
 H   -3.014688   -2.698827    1.225903
 H   -0.640773    0.273006   -0.751656
 H   -0.219073   -1.400440   -1.913316
