45 
3jyj_ligand_ani-2x.xyz
 C    2.380585   -0.878570    0.575116
 C    2.601667    0.568868    0.721928
 C    3.062406    1.368896   -0.328064
 C    3.253817    2.733574   -0.141968
 C    2.984537    3.319511    1.091459
 C    2.516781    2.533697    2.142398
 C    2.324734    1.170021    1.953424
 C    0.991363   -2.993071   -1.732053
 C    2.141191   -3.009562   -0.698668
 C    1.504298   -2.510029   -3.074368
 O    2.474555   -3.299031   -3.559347
 O    1.115642   -1.517490   -3.645788
 C    2.670526   -1.626365   -0.496429
 C   -3.401779    3.339751   -0.002283
 C   -4.514871    2.968720    0.793558
 C   -4.663021    1.673914    1.215945
 C   -2.465486    2.405716   -0.356185
 C   -2.593919    1.055875    0.066351
 C   -3.708162    0.683147    0.864383
 C   -3.827902   -0.668534    1.292386
 C   -2.892818   -1.598740    0.935580
 C   -1.792266   -1.237502    0.115245
 C   -1.644041    0.065177   -0.292008
 C   -0.829290   -2.330392   -0.241326
 N   -0.086386   -2.115039   -1.353347
 O   -0.736318   -3.357244    0.422102
 H    1.902406   -1.344168    1.435230
 H    3.266368    0.928203   -1.302748
 H    3.616338    3.341620   -0.967356
 H    3.136454    4.386289    1.232976
 H    2.300731    2.985152    3.108036
 H    1.956309    0.555477    2.772797
 H    0.617068   -4.016237   -1.848330
 H    1.737017   -3.421789    0.229214
 H    2.924200   -3.674320   -1.074346
 H    2.750895   -2.907334   -4.404966
 H    3.256285   -1.225438   -1.323980
 H   -3.299254    4.371601   -0.328308
 H   -5.249587    3.722027    1.066004
 H   -5.514760    1.384371    1.827839
 H   -1.606831    2.678188   -0.966646
 H   -4.676687   -0.948501    1.912582
 H   -2.963410   -2.631185    1.264931
 H   -0.779886    0.383985   -0.872721
 H   -0.239400   -1.313440   -1.948647
