79 
3jzg_ligand_ani-2x.xyz
 N    6.366073   -2.308681   -0.569043
 C    5.035023   -2.606221   -1.098592
 C    4.071187   -2.562060    0.092988
 O    4.292645   -3.236332    1.093554
 C    4.922074   -3.974490   -1.776548
 N    2.984147   -1.774513   -0.065196
 C    1.817939   -1.788035    0.790594
 C    0.724645   -1.021176    0.029730
 O    0.975686   -0.460200   -1.039003
 C    2.056771   -1.261086    2.224473
 C    2.135388    0.255481    2.456709
 C    3.432842    0.932644    2.010206
 N    3.459649    1.219507    0.576272
 C    4.417192    0.865900   -0.280456
 N    4.145426    0.823916   -1.606477
 N    5.660163    0.545446    0.132525
 N   -0.508575   -0.977992    0.576756
 C   -1.627100   -0.285038   -0.062440
 C   -2.954935   -0.862682    0.413726
 C   -4.157254   -0.368011   -0.387841
 C   -5.468432   -0.997977    0.082551
 C   -6.658577   -0.492067   -0.726481
 N   -8.019502   -1.043536   -0.335838
 C   -1.539013    1.234907    0.203593
 O   -2.335516    1.821250    0.926698
 C   -8.372880   -0.685636    1.064735
 C   -8.079777   -2.520494   -0.507995
 C   -9.028872   -0.435215   -1.233430
 N   -0.512316    1.860819   -0.422709
 C   -0.255882    3.273961   -0.284369
 C    0.964983    3.611699   -1.114337
 O    1.811634    2.815857   -1.460752
 C    0.060026    3.704835    1.152428
 O    1.345268    3.193858    1.481699
 O    1.037711    4.913700   -1.392631
 H    6.110625   -0.263027   -0.300771
 H    6.489052   -2.877888    0.267749
 H    7.077989   -2.594535   -1.236576
 H    4.768873   -1.816518   -1.813317
 H    5.138185   -4.764995   -1.050025
 H    3.913774   -4.130584   -2.173585
 H    5.634450   -4.053626   -2.606010
 H    2.868162   -1.240247   -0.919698
 H    1.477300   -2.827509    0.909601
 H    2.969735   -1.750420    2.582545
 H    1.238844   -1.650927    2.844048
 H    1.268097    0.759464    2.013981
 H    2.051154    0.412145    3.539791
 H    4.268125    0.265504    2.264038
 H    3.592069    1.861357    2.571988
 H    2.607879    1.608282    0.184536
 H    3.352965    1.380090   -1.918056
 H    4.957691    0.895789   -2.209116
 H    5.835611    0.609780    1.125975
 H   -0.674977   -1.427070    1.465364
 H   -1.508616   -0.446672   -1.141873
 H   -3.090829   -0.611714    1.473309
 H   -2.887727   -1.956063    0.337795
 H   -3.999514   -0.594501   -1.452891
 H   -4.213417    0.723823   -0.299917
 H   -5.391850   -2.090407    0.000987
 H   -5.607632   -0.766859    1.146887
 H   -6.525084   -0.734695   -1.786983
 H   -6.735585    0.598008   -0.641970
 H   -8.300169    0.398142    1.185367
 H   -7.704603   -1.185371    1.765220
 H   -9.399807   -1.007734    1.258311
 H   -7.793881   -2.772313   -1.532351
 H   -9.105141   -2.851703   -0.321763
 H   -7.412179   -3.013081    0.198179
 H   -8.793255   -0.697604   -2.267808
 H   -9.008801    0.650654   -1.111806
 H  -10.017597   -0.818613   -0.970609
 H    0.160202    1.304185   -0.946174
 H   -1.107609    3.861227   -0.645351
 H   -0.719384    3.312186    1.809197
 H    0.057992    4.801430    1.195229
 H    1.445178    3.203303    2.440767
 H    1.860795    5.056850   -1.889032
