51 
3k39_ligand_ani-2x.xyz
 C    1.728440   -0.225344    0.891714
 N    2.729413    0.754915    0.503376
 C    2.507569    2.101502    0.490019
 N    3.629192    2.832876    0.098263
 N    1.359742    2.608698    0.778109
 C    0.609587   -0.436774   -0.189769
 C   -0.836689   -0.260624    0.328225
 C   -1.873382   -0.213011   -0.829454
 C   -1.790284    1.097877   -1.633521
 C   -2.520296    1.053425   -2.976720
 C   -3.303920   -0.436728   -0.304311
 C   -3.533154   -1.795550    0.356733
 N   -0.944086    0.923634    1.160346
 C   -1.477417    0.870463    2.409200
 C   -1.335837    2.152591    3.207519
 O   -2.045574   -0.119621    2.853639
 C    0.857889   -1.837644   -0.806068
 O   -0.127262   -2.735387   -0.311237
 C    2.260137   -2.283498   -0.317389
 C    3.349816   -1.901167   -1.297868
 O    3.149450   -2.457879   -2.506927
 O    4.316048   -1.201618   -1.077315
 C    2.389584   -1.602595    1.053286
 H    1.294985    0.116909    1.835868
 H    3.535421    0.410030   -0.002652
 H    3.547015    3.822611    0.285146
 H    4.511823    2.467014    0.433077
 H    1.382191    3.623247    0.738451
 H    0.793353    0.318415   -0.963846
 H   -1.089314   -1.101568    0.977403
 H   -1.640250   -1.052295   -1.504487
 H   -2.193622    1.914945   -1.021642
 H   -0.740787    1.357406   -1.825627
 H   -3.597340    0.892020   -2.861637
 H   -2.389359    1.997255   -3.515948
 H   -2.128171    0.251681   -3.613216
 H   -3.998111   -0.333799   -1.146804
 H   -3.565032    0.361893    0.402948
 H   -3.204444   -2.619488   -0.288804
 H   -3.002929   -1.869394    1.311385
 H   -4.598194   -1.943297    0.561798
 H   -0.290563    1.683509    0.947482
 H   -1.642629    1.961386    4.236640
 H   -1.973146    2.938431    2.785828
 H   -0.302922    2.517806    3.191236
 H    0.807643   -1.793483   -1.903238
 H   -0.054486   -3.552252   -0.819140
 H    2.286380   -3.377841   -0.241249
 H    3.895226   -2.174320   -3.062776
 H    1.831256   -2.185144    1.794904
 H    3.426637   -1.519617    1.389150
