51 
3k39_ligand_xtb.xyz
 C    1.706079   -0.204661    0.931282
 N    2.648334    0.798286    0.483389
 C    2.333952    2.112604    0.335692
 N    3.281810    2.838456   -0.365300
 N    1.249784    2.603384    0.802155
 C    0.599228   -0.499877   -0.115626
 C   -0.832871   -0.261129    0.405860
 C   -1.830083   -0.118159   -0.767639
 C   -1.767045    1.290594   -1.375131
 C   -2.280692    1.330556   -2.810276
 C   -3.250916   -0.450982   -0.293152
 C   -3.509748   -1.951525   -0.241012
 N   -0.882053    0.896690    1.266166
 C   -1.415948    0.850805    2.502364
 C   -1.247390    2.151858    3.264724
 O   -2.003343   -0.113762    2.955689
 C    0.812466   -1.957266   -0.592840
 O   -0.107021   -2.819548    0.018728
 C    2.262179   -2.316525   -0.154204
 C    3.247177   -1.971093   -1.238342
 O    3.201473   -2.860929   -2.234095
 O    3.995941   -1.026593   -1.263428
 C    2.442542   -1.530674    1.143459
 H    1.267239    0.159543    1.862269
 H    3.356789    0.442820   -0.147267
 H    3.277281    3.836146   -0.226283
 H    4.199050    2.432912   -0.459864
 H    1.165124    3.605199    0.670449
 H    0.770912    0.164010   -0.967670
 H   -1.129395   -1.116536    1.020204
 H   -1.545770   -0.842970   -1.537139
 H   -2.356287    1.968423   -0.755858
 H   -0.737530    1.653628   -1.364218
 H   -3.308586    0.981334   -2.868820
 H   -2.244978    2.346116   -3.198903
 H   -1.670777    0.697590   -3.452433
 H   -3.977949    0.008723   -0.965692
 H   -3.398736   -0.024856    0.699398
 H   -3.428011   -2.388148   -1.235362
 H   -2.791574   -2.441375    0.409921
 H   -4.508634   -2.149322    0.140427
 H   -0.248058    1.669360    1.033392
 H   -1.461378    1.987896    4.316840
 H   -1.948486    2.886451    2.874319
 H   -0.238232    2.534151    3.139280
 H    0.714367   -2.027151   -1.686332
 H   -0.025976   -3.699007   -0.365136
 H    2.330597   -3.396678    0.002019
 H    3.828378   -2.625202   -2.937087
 H    1.965602   -2.083269    1.951039
 H    3.490763   -1.369699    1.390141
