14 
3k3g_ligand_ani-2x.xyz
 N   49.458123  -12.436539    6.861426
 N   49.059455  -12.453431    9.144985
 C   50.040787  -12.991036    5.657542
 C   49.201959  -13.026042   10.467159
 O   50.314007  -14.086148    8.175332
 C   49.654455  -13.060278    8.067746
 H   48.910203  -11.594996    6.805687
 H   48.525596  -11.609667    9.024318
 H   51.131302  -13.041000    5.735735
 H   49.673761  -14.005758    5.474572
 H   49.772453  -12.356298    4.810411
 H   48.796295  -14.041967   10.501159
 H   50.254821  -13.078461   10.761414
 H   48.662084  -12.402079   11.182515
