22 
3k4d_ligand_xtb.xyz
 C    1.715002   -0.401281    0.998781
 N    0.688672   -1.202418   -1.082624
 O    1.835725    0.411871    1.869492
 C    1.354973   -0.087400   -0.459555
 C    0.550330    1.225948   -0.563358
 C   -0.957496    0.964817   -0.722737
 O    1.068937    1.945408   -1.653753
 C   -0.610818   -1.466220   -0.870737
 O   -2.711845   -0.593224   -0.122887
 O   -1.212840   -2.416656   -1.324538
 C   -1.330152   -0.383429   -0.078617
 O   -1.662307    2.023352   -0.132322
 O    1.907298   -1.707150    1.177875
 H    1.235187   -1.887081   -1.583775
 H    2.300503    0.092323   -0.984929
 H    0.694466    1.790155    0.370789
 H   -1.197802    0.907918   -1.798991
 H    0.581979    2.774593   -1.724733
 H   -2.846095   -1.420669   -0.620385
 H   -0.994639   -0.382352    0.970330
 H   -2.560620    1.709246    0.039004
 H    2.151742   -1.898052    2.098371
