22 
3k4d_ligand_aiqm1.xyz
 C    1.797454   -0.421025    0.959568
 N    0.645922   -1.208173   -1.089037
 O    1.961084    0.392002    1.828606
 C    1.329451   -0.096317   -0.461754
 C    0.506300    1.206282   -0.482916
 C   -0.964084    0.940807   -0.764697
 O    1.087599    2.022188   -1.488135
 C   -0.658734   -1.484006   -0.835022
 O   -2.764932   -0.525084   -0.177333
 O   -1.249661   -2.480956   -1.204651
 C   -1.376766   -0.364115   -0.099343
 O   -1.698911    2.048942   -0.286274
 O    2.052906   -1.731908    1.112845
 H    1.190235   -1.967371   -1.465954
 H    2.241844    0.100732   -1.023732
 H    0.593162    1.678086    0.498503
 H   -1.110753    0.834401   -1.847643
 H    0.616426    2.858230   -1.488534
 H   -2.913165   -1.397184   -0.564167
 H   -1.051407   -0.359332    0.952901
 H   -2.626660    1.796502   -0.282399
 H    2.392890   -1.843002    2.009866
