83 
3k5f_ligand_xtb.xyz
 N   -0.658568   -1.960397   -0.084992
 C    0.396785   -2.868531   -0.529553
 C    1.724450   -2.139509   -0.870788
 O    1.712730   -1.575763   -2.154458
 C    2.051684   -1.131085    0.246667
 C    3.449048   -0.476278    0.220933
 C    4.552905   -1.382494   -0.321878
 C    3.453271    0.866287   -0.519194
 O    3.713189    1.906061    0.062342
 N    3.189049    0.788926   -1.830246
 C    3.143566    1.945826   -2.690566
 C    1.731692    2.248060   -3.199055
 C    0.721801    2.519402   -2.084704
 C    1.092317    3.711575   -1.210278
 C   -0.093793   -3.733614   -1.706849
 C    0.855905   -4.868074   -1.965838
 C    1.858706   -4.751184   -2.919662
 C    2.749676   -5.788212   -3.132067
 C    2.648373   -6.955290   -2.394109
 C    1.651997   -7.080176   -1.441148
 C    0.763232   -6.041536   -1.228092
 C   -1.134454   -0.889509   -0.750614
 O   -0.701388   -0.521502   -1.831180
 C   -2.200825   -0.118426    0.006330
 C   -1.479059    0.794728    1.011763
 C   -2.498442    1.610999    1.804767
 C   -3.303439    2.469057    0.824933
 C   -4.039309    1.575548   -0.169068
 C   -3.051554    0.715999   -0.948391
 C   -1.871860    2.441282    2.955548
 N   -2.958216    3.127705    3.661116
 C   -3.994494    2.528782    4.287482
 O   -4.172879    1.328754    4.314405
 C   -4.931750    3.516627    4.958604
 C   -1.149670    1.534811    3.961122
 C   -0.905216    3.516784    2.463209
 H   -1.106932   -2.195419    0.785560
 H    0.603992   -3.526103    0.321014
 H    2.499538   -2.913641   -0.898149
 H    0.863358   -1.082985   -2.242870
 H    1.304950   -0.333666    0.235189
 H    1.945915   -1.669107    1.192251
 H    3.698552   -0.221203    1.257014
 H    5.511791   -0.876313   -0.235187
 H    4.388289   -1.625516   -1.367942
 H    4.600251   -2.306875    0.251116
 H    2.846085   -0.091040   -2.204753
 H    3.534254    2.787180   -2.115386
 H    3.802831    1.772019   -3.549047
 H    1.788302    3.116364   -3.859117
 H    1.378435    1.398040   -3.787979
 H   -0.252560    2.694191   -2.548190
 H    0.631398    1.625320   -1.465883
 H    0.273531    3.956554   -0.536194
 H    1.298197    4.585965   -1.824560
 H    1.971405    3.491877   -0.609796
 H   -1.082102   -4.123917   -1.452519
 H   -0.186194   -3.107577   -2.594382
 H    1.942448   -3.838124   -3.489710
 H    3.525224   -5.685924   -3.876903
 H    3.342195   -7.765800   -2.561561
 H    1.566021   -7.989100   -0.863576
 H   -0.016015   -6.145956   -0.485548
 H   -2.842634   -0.815317    0.555876
 H   -0.815287    1.463480    0.460528
 H   -0.874136    0.183262    1.682531
 H   -3.191870    0.915085    2.287756
 H   -2.635099    3.132908    0.273072
 H   -4.025366    3.080701    1.368839
 H   -4.738405    0.933481    0.371778
 H   -4.617075    2.189270   -0.862799
 H   -3.583847    0.056287   -1.636610
 H   -2.390044    1.349219   -1.541860
 H   -2.893697    4.131644    3.708029
 H   -5.329411    4.216814    4.227082
 H   -4.399025    4.074840    5.725497
 H   -5.752384    2.973984    5.418045
 H   -1.799590    0.718455    4.262550
 H   -0.233127    1.136052    3.537662
 H   -0.890615    2.111193    4.846867
 H   -1.405135    4.225721    1.807911
 H   -0.076238    3.067257    1.925453
 H   -0.495734    4.060787    3.312307
