83 
3k5f_ligand_ani-2x.xyz
 N   -0.599975   -2.010260   -0.014409
 C    0.458268   -2.948202   -0.423544
 C    1.745112   -2.245511   -0.929199
 O    1.579647   -1.689695   -2.226735
 C    2.259656   -1.206470    0.079328
 C    3.644049   -0.571232   -0.186287
 C    4.663429   -1.498193   -0.863675
 C    3.627156    0.764930   -0.929928
 O    4.405698    1.656242   -0.610071
 N    2.746066    0.880251   -1.952365
 C    2.535283    2.123356   -2.669198
 C    1.174098    2.747802   -2.350366
 C    0.951522    3.058320   -0.864960
 C    1.923787    4.078231   -0.269229
 C   -0.085579   -4.003601   -1.409679
 C    0.906649   -5.089052   -1.760008
 C    1.805705   -4.911842   -2.816834
 C    2.727070   -5.902934   -3.142834
 C    2.770016   -7.085213   -2.409415
 C    1.885133   -7.269773   -1.351500
 C    0.959446   -6.280246   -1.032674
 C   -1.269689   -1.158283   -0.832737
 O   -1.071096   -1.133525   -2.049605
 C   -2.265981   -0.218201   -0.159035
 C   -1.601519    0.636867    0.940003
 C   -2.604150    1.595447    1.601527
 C   -3.248980    2.476899    0.520526
 C   -3.939686    1.629494   -0.550420
 C   -2.953663    0.662958   -1.205303
 C   -2.007798    2.412704    2.788731
 N   -3.064020    3.219337    3.427082
 C   -4.167386    2.712871    4.043790
 O   -4.395582    1.516065    4.141537
 C   -5.123966    3.742615    4.612670
 C   -1.403141    1.466766    3.837454
 C   -0.932447    3.404989    2.341233
 H   -0.796702   -1.956081    0.973588
 H    0.736867   -3.471542    0.496701
 H    2.513734   -3.024396   -1.019064
 H    0.623797   -1.498057   -2.347391
 H    1.523715   -0.401238    0.200886
 H    2.317957   -1.718471    1.049060
 H    4.055787   -0.293929    0.790124
 H    5.639698   -1.005682   -0.906404
 H    4.367769   -1.747934   -1.889197
 H    4.780861   -2.432163   -0.302441
 H    2.212041    0.058123   -2.220837
 H    3.351159    2.795926   -2.389980
 H    2.612319    1.934547   -3.746398
 H    1.069619    3.672164   -2.935514
 H    0.379418    2.071389   -2.700061
 H   -0.078988    3.421008   -0.735460
 H    1.018870    2.127286   -0.285806
 H    1.648584    4.304436    0.767519
 H    1.906083    5.022756   -0.825754
 H    2.950423    3.697479   -0.265990
 H   -0.976172   -4.449852   -0.951547
 H   -0.420378   -3.497253   -2.318850
 H    1.798997   -3.969211   -3.361291
 H    3.416251   -5.748739   -3.968716
 H    3.490962   -7.858681   -2.661640
 H    1.910351   -8.190986   -0.774220
 H    0.262402   -6.445099   -0.212623
 H   -3.026968   -0.851027    0.328308
 H   -0.774563    1.203683    0.486222
 H   -1.159097   -0.021333    1.697384
 H   -3.400353    0.984949    2.050654
 H   -2.468374    3.077901    0.030279
 H   -3.955534    3.181419    0.973396
 H   -4.763518    1.060487   -0.093367
 H   -4.395174    2.277166   -1.309296
 H   -3.448630    0.037884   -1.955029
 H   -2.178282    1.230075   -1.740080
 H   -2.934042    4.220130    3.422088
 H   -6.116771    3.559317    4.191788
 H   -4.834672    4.778561    4.412149
 H   -5.196055    3.591987    5.694171
 H   -2.123112    0.700253    4.132759
 H   -0.497555    0.984105    3.454821
 H   -1.122363    2.040806    4.726585
 H   -1.330269    4.149668    1.640732
 H   -0.087511    2.898018    1.860641
 H   -0.535808    3.936239    3.213132
