42 
3k5u_ligand_ani-2x.xyz
 C   -4.286227  -30.515696    9.666345
 C   -3.439108  -32.010925    5.651291
 C   -2.805839  -32.875181    4.655841
 C   -2.570174  -32.446015    3.346810
 C   -1.970682  -33.293558    2.422225
 C   -1.591888  -34.579068    2.794385
 C   -1.804877  -35.009318    4.102060
 C   -2.396351  -34.163678    5.029663
 C   -4.802964  -28.850278    4.313763
 C   -5.416593  -28.223432    3.234954
 C   -6.082747  -28.977894    2.274455
 C   -6.120354  -30.364208    2.391143
 N   -3.607306  -31.490988    9.071149
 C   -3.737112  -31.446379    7.754215
 O   -3.153050  -32.345996    6.947965
 C   -4.452559  -30.527811    7.001584
 N   -6.010492  -28.679566    7.199751
 C   -5.185228  -29.587356    7.767713
 N   -5.054396  -29.579466    9.100438
 C   -5.501317  -30.992526    3.466306
 C   -4.252127  -30.898253    5.617943
 C   -4.852231  -30.241567    4.449777
 C   -8.088339  -28.439435    8.563111
 C   -6.829793  -27.786577    8.000497
 O   -8.816368  -27.420776    9.223726
 H   -4.217787  -30.475288   10.753005
 H   -2.849765  -31.440792    3.046440
 H   -1.799500  -32.945496    1.407477
 H   -1.126232  -35.243088    2.070948
 H   -1.502379  -36.010150    4.402005
 H   -2.545484  -34.495040    6.054273
 H   -4.274680  -28.255273    5.055428
 H   -5.373544  -27.142116    3.147289
 H   -6.565946  -28.487843    1.433560
 H   -6.629769  -30.961155    1.640608
 H   -6.292201  -28.854344    6.244879
 H   -5.512038  -32.077988    3.541802
 H   -7.792812  -29.246952    9.250961
 H   -8.682328  -28.883713    7.747679
 H   -7.109324  -26.930466    7.379709
 H   -6.211289  -27.433666    8.830023
 H   -9.610900  -27.818381    9.597304
