42 
3k5u_ligand_aiqm1.xyz
 C   -4.326210  -30.539139    9.731979
 C   -3.384046  -31.965651    5.722145
 C   -2.786758  -32.803648    4.682073
 C   -2.510681  -32.291647    3.407898
 C   -1.965363  -33.119543    2.430896
 C   -1.684049  -34.452381    2.715893
 C   -1.944098  -34.958412    3.988788
 C   -2.489246  -34.139640    4.970470
 C   -4.688432  -28.920883    4.236695
 C   -5.264473  -28.342506    3.105975
 C   -6.016711  -29.120391    2.230811
 C   -6.190291  -30.477868    2.487747
 N   -3.589110  -31.480141    9.147548
 C   -3.693726  -31.421804    7.826200
 O   -3.052954  -32.293527    7.021678
 C   -4.439832  -30.527570    7.073814
 N   -5.952374  -28.648415    7.239103
 C   -5.177456  -29.590890    7.823174
 N   -5.110133  -29.610843    9.164224
 C   -5.617528  -31.059247    3.615673
 C   -4.237452  -30.901397    5.690218
 C   -4.855855  -30.284952    4.500208
 C   -8.073889  -28.488067    8.509357
 C   -6.832342  -27.773634    7.991949
 O   -8.922729  -27.483539    9.052755
 H   -4.296558  -30.519125   10.812708
 H   -2.717456  -31.254142    3.183786
 H   -1.756404  -32.719387    1.447964
 H   -1.259339  -35.091969    1.953838
 H   -1.718751  -35.991578    4.219185
 H   -2.683984  -34.529515    5.960088
 H   -4.103412  -28.311515    4.914455
 H   -5.120359  -27.287762    2.912755
 H   -6.462223  -28.673493    1.353435
 H   -6.770921  -31.086854    1.808443
 H   -6.074308  -28.705100    6.242491
 H   -5.743243  -32.116900    3.807939
 H   -7.786360  -29.223873    9.265491
 H   -8.570551  -29.016805    7.684991
 H   -7.139629  -26.957511    7.339922
 H   -6.285873  -27.355248    8.838043
 H   -9.628991  -27.911186    9.537693
