32 
3k99_ligand_xtb.xyz
 N   47.525426   72.329477   63.938248
 C   46.762549   72.322930   65.045528
 C   47.841180   73.590596   63.280861
 C   47.937395   71.179743   63.154546
 C   46.428483   70.981038   65.627564
 O   46.336089   73.347677   65.548205
 C   48.280198   73.170455   61.916174
 C   48.330643   71.782547   61.839713
 C   47.355889   70.111779   66.090335
 C   45.037605   70.689110   65.817667
 C   48.612202   73.948719   60.825387
 C   48.712747   71.151741   60.673061
 C   46.972834   68.844354   66.774912
 O   48.680316   70.369686   65.973133
 C   44.587227   69.535651   66.349403
 C   48.996461   73.315987   59.651795
 C   49.045759   71.933562   59.576041
 C   45.486183   68.496686   66.803908
 O   45.123090   67.411542   67.212762
 H   48.634729   74.118350   63.824852
 H   46.957343   74.237289   63.276062
 H   47.120546   70.455716   63.057989
 H   48.792128   70.674240   63.622761
 H   44.344305   71.453596   65.497152
 H   48.572722   75.025826   60.884395
 H   48.750822   70.074224   60.613970
 H   47.293773   68.894094   67.823831
 H   47.509205   67.997395   66.331704
 H   49.199040   69.695209   66.430804
 H   43.531276   69.334363   66.443000
 H   49.258728   73.907923   58.787803
 H   49.345706   71.458596   58.654035
