32 
3k99_ligand_aiqm1.xyz
 N   47.384933   72.334159   63.845950
 C   47.206738   72.266206   65.195814
 C   47.944462   73.564762   63.278682
 C   47.503324   71.181944   62.948173
 C   46.730800   70.943006   65.715175
 O   47.389383   73.232689   65.916279
 C   48.252212   73.167862   61.862164
 C   48.002944   71.811049   61.674215
 C   47.412606   70.268787   66.663769
 C   45.460409   70.403845   65.254279
 C   48.721442   73.950515   60.814308
 C   48.219549   71.210232   60.440144
 C   46.928074   68.983789   67.248071
 O   48.617281   70.719957   67.091879
 C   44.928782   69.248064   65.701149
 C   48.940270   73.352798   59.573564
 C   48.691783   71.993372   59.387704
 C   45.614723   68.445349   66.709780
 O   45.180442   67.389103   67.130446
 H   48.830370   73.871426   63.840069
 H   47.221374   74.378927   63.360571
 H   46.538591   70.680278   62.810536
 H   48.201561   70.438992   63.347117
 H   44.926072   70.987688   64.510660
 H   48.914941   75.006570   60.953874
 H   48.025765   70.154667   60.293208
 H   46.816609   69.105772   68.327427
 H   47.689561   68.212005   67.119282
 H   48.913717   70.173507   67.822290
 H   43.982299   68.870726   65.344674
 H   49.305480   73.948360   58.747211
 H   48.866104   71.543696   58.419139
