70 
3k9x_ligand_ani-2x.xyz
 C    0.548350    1.412996    7.228778
 N   -1.709131    0.170623    0.729324
 O   -1.235662   -0.688756    3.183407
 C    0.728039    2.370825    6.233839
 N   -0.000111    0.213920    7.016281
 O   -4.670905   -0.078954   -3.919429
 C    0.316388    2.068580    4.944288
 N   -0.478678    1.348607    2.365894
 O    4.251616   -2.945840   -1.222553
 C   -0.808591    1.110001    1.117644
 N   -0.222791    1.891821    0.142236
 O    2.456960    1.470294    0.283130
 C   -0.718165    0.424550    3.346060
 N    3.091878   -2.457074    0.649270
 C   -0.392381   -0.064054    5.775451
 N    2.474185   -0.138325   -1.316845
 C   -0.258769    0.823545    4.704590
 C   -4.692155    1.244156   -4.279687
 C   -4.024456    2.013793   -3.390479
 C   -5.421629    1.561881   -5.536706
 C   -2.477176    0.130366   -0.457738
 C   -2.771126    1.272438   -1.197062
 C   -3.527944    1.121985   -2.366002
 C   -2.947849   -1.130579   -0.862315
 C   -3.689420   -1.294580   -2.023125
 C   -3.959071   -0.145668   -2.753774
 C    3.079670   -3.859742    1.064254
 C    3.775002   -0.622175   -0.857903
 C    3.734325   -2.110146   -0.493521
 C    2.281200   -1.600569    1.514173
 C    2.001291   -3.902579    2.147447
 C    2.020619   -2.488040    2.734320
 C    0.436409    2.135433   -2.225510
 C    1.875896    0.865120   -0.610867
 C    0.428935    1.227397   -0.991044
 C    1.967805   -0.604700   -2.606215
 C    0.570020    1.354137   -3.535503
 C    1.831756    0.495740   -3.664215
 H    0.860723    1.617256    8.251268
 H   -1.926052   -0.494193    1.469200
 H    1.181282    3.329945    6.468000
 H    0.423705    2.760890    4.114680
 H    0.450494    2.501089    0.599675
 H   -0.840228   -1.040777    5.605871
 H   -3.903070    3.087796   -3.452237
 H   -5.379004    2.635910   -5.731097
 H   -4.980009    1.034871   -6.388911
 H   -6.472103    1.261071   -5.465932
 H   -2.403312    2.236878   -0.870211
 H   -2.707715   -1.996264   -0.247539
 H   -4.046734   -2.266817   -2.344278
 H    2.869101   -4.496749    0.201507
 H    4.068002   -4.142253    1.446795
 H    4.524269   -0.516662   -1.651196
 H    4.067203   -0.003233   -0.007156
 H    1.338708   -1.342152    1.018540
 H    2.802730   -0.675233    1.768040
 H    2.191793   -4.676142    2.896441
 H    1.023969   -4.112865    1.696696
 H    2.842877   -2.382754    3.449566
 H    1.088873   -2.222550    3.242515
 H    1.244558    2.872827   -2.128763
 H   -0.505386    2.694694   -2.230274
 H   -0.122805    0.316353   -1.234362
 H    1.004557   -1.118712   -2.465723
 H    2.671265   -1.368126   -2.953510
 H    0.535016    2.057875   -4.375980
 H   -0.311502    0.705066   -3.649768
 H    2.725887    1.130827   -3.636122
 H    1.818273    0.015709   -4.651630
