22 
3kab_ligand_dft.xyz
 C   33.227898   25.780252   24.645728
 N   33.725767   25.672553   25.930630
 C   34.217833   25.487197   23.743716
 C   35.042728   25.308311   25.867580
 C   31.842569   26.155304   24.370918
 C   35.388083   25.182138   24.500752
 C   35.965653   25.077564   26.897108
 O   31.144761   26.373129   25.512660
 C   36.704834   24.812070   24.170024
 O   31.349776   26.266058   23.272692
 C   37.254301   24.714937   26.551452
 C   37.609170   24.586104   25.183627
 C   38.295730   24.452682   27.610125
 H   34.100626   25.495223   22.669840
 H   35.677155   25.180660   27.939848
 H   30.246543   26.614042   25.237337
 H   37.000568   24.707014   23.130338
 H   38.628748   24.299799   24.938338
 H   38.684852   23.430871   27.534699
 H   39.147893   25.133208   27.500830
 H   37.887984   24.583659   28.616656
 H   33.184527   25.839228   26.763104
