51 
3kai_ligand_xtb.xyz
 C   -3.026935    0.606679    0.820447
 C   -2.598366   -1.399539   -0.449902
 C   -1.767998   -0.695894   -1.284219
 C   -2.711285   -2.891763   -0.574472
 C   -1.758204   -3.564891    0.460991
 C   -2.465971   -3.678004    1.795197
 N   -0.520850   -2.835561    0.583691
 O   -3.495265   -4.273327    1.961569
 O   -1.844454   -3.025056    2.784542
 C    0.391934   -2.814112   -0.422854
 C   -3.244680   -0.724476    0.605019
 O    0.415875   -3.657386   -1.302658
 C    1.295491   -1.655192   -0.364686
 N    2.357190   -1.476694   -1.193545
 N    2.876542   -0.273376   -1.078075
 C    2.155288    0.383353   -0.166730
 C    1.142807   -0.456759    0.321864
 C    2.410581    1.777390    0.156253
 C    3.342775    2.499813   -0.587649
 C    3.569565    3.835165   -0.319383
 C    2.870947    4.470500    0.694867
 C    1.947924    3.758968    1.442749
 C    1.717355    2.422471    1.178088
 C    2.954741   -2.431331   -2.081995
 C   -2.137084    1.337837    0.004249
 C   -1.506486    0.673747   -1.079770
 C   -0.598723    1.391048   -1.886540
 C   -0.319788    2.702447   -1.624797
 C   -0.946515    3.360686   -0.555296
 C   -1.838610    2.696037    0.238474
 H   -3.523739    1.117763    1.633218
 H   -1.274582   -1.197469   -2.105250
 H   -2.402929   -3.204433   -1.571807
 H   -3.726675   -3.242437   -0.386698
 H   -1.533105   -4.578739    0.109300
 H   -0.526344   -2.073362    1.242357
 H   -2.335291   -3.132650    3.615112
 H   -3.917522   -1.278651    1.244474
 H    0.391817   -0.202167    1.041456
 H    3.876192    1.992053   -1.375811
 H    4.292180    4.386665   -0.903493
 H    3.046274    5.516030    0.902608
 H    1.403182    4.249406    2.236726
 H    0.994408    1.879772    1.767966
 H    3.675604   -3.052237   -1.544934
 H    3.472766   -1.884746   -2.867455
 H    2.180143   -3.072716   -2.498838
 H   -0.116156    0.877910   -2.705959
 H    0.389851    3.241810   -2.234039
 H   -0.711785    4.397130   -0.363632
 H   -2.322390    3.198686    1.064270
