47 
3kcf_ligand_aiqm1.xyz
 C   74.723794   34.169170   90.964889
 O   75.006578   32.940710   91.597449
 C   75.252998   31.937040   90.639910
 C   75.594271   30.637391   91.315489
 C   76.081835   30.604423   92.622942
 C   76.439993   29.386077   93.194082
 C   76.309173   28.198912   92.476095
 C   75.795522   28.219931   91.173642
 C   75.448809   29.448526   90.603832
 C   75.627436   26.976658   90.392386
 C   75.160310   25.773600   90.805122
 N   75.297598   24.811219   89.800082
 C   74.185205   23.897627   89.555175
 N   75.681614   25.527719   88.644283
 C   76.436721   24.821368   87.627737
 C   76.032724   26.825493   88.984222
 O   76.562495   27.612925   88.216166
 C   74.610093   25.401134   92.120235
 C   73.659760   26.255506   92.753681
 C   73.163386   25.943953   93.990729
 C   73.581770   24.763222   94.655598
 N   73.073763   24.475714   95.886459
 C   73.505879   23.370007   96.443218
 C   74.446025   22.510846   95.810690
 N   74.949188   22.762333   94.626610
 C   74.519202   23.908474   94.026347
 C   75.023951   24.247562   92.748070
 H   75.564980   34.490745   90.340785
 H   73.830658   34.088758   90.335851
 H   74.550695   34.907026   91.743917
 H   76.078750   32.248529   89.984790
 H   74.371768   31.803357   89.998871
 H   76.175653   31.528290   93.177492
 H   76.830198   29.359946   94.204481
 H   76.608694   27.258430   92.922700
 H   75.087305   29.472300   89.581749
 H   73.951474   23.375699   90.480055
 H   73.297832   24.426678   89.194626
 H   74.486911   23.156513   88.819375
 H   77.307180   24.319107   88.058163
 H   75.805595   24.090922   87.122455
 H   76.763629   25.572191   86.913103
 H   73.347513   27.159165   92.249293
 H   72.449613   26.582633   94.492398
 H   73.118812   23.118002   97.423703
 H   74.772243   21.606392   96.310910
 H   75.743102   23.581877   92.290344
