49 
3kdm_ligand_aiqm1.xyz
 C    2.868950   -1.453014    0.116475
 C    4.370314   -1.214093   -0.000875
 C    4.692959   -0.385205   -1.223911
 O    5.707471   -0.553296   -1.873253
 C    3.722256    0.672981   -1.549970
 C    2.538817    0.816432   -0.921254
 C    1.648378    1.995573   -1.232632
 C    0.213799    1.565742   -1.500772
 C   -0.333935    0.744797   -0.335868
 C    0.547203   -0.498751   -0.087013
 C    2.043882   -0.148894    0.165986
 C   -0.038561   -1.395023    1.024885
 C   -1.512437   -1.765970    0.799778
 C   -2.352484   -0.508813    0.587412
 C   -1.760078    0.276447   -0.590661
 C   -2.846991    1.306054   -0.945903
 C   -4.175376    0.597606   -0.558098
 C   -3.758217   -0.762779    0.040969
 O   -4.631685   -1.247423    1.052828
 C   -2.450738    0.313789    1.886321
 C    2.260193    0.536746    1.536897
 H    2.658782   -2.046498    1.008289
 H    2.530969   -2.046358   -0.740201
 H    4.737393   -0.672048    0.877829
 H    4.929750   -2.146979   -0.056612
 H    4.020951    1.364789   -2.330698
 H    1.669914    2.674240   -0.375555
 H    2.056589    2.548038   -2.078605
 H   -0.406963    2.447897   -1.679059
 H    0.179537    0.960621   -2.413164
 H   -0.319102    1.369784    0.565226
 H    0.529838   -1.080166   -1.022226
 H    0.553929   -2.308398    1.125182
 H    0.051576   -0.871233    1.981115
 H   -1.603745   -2.404961   -0.086829
 H   -1.894776   -2.341081    1.646715
 H   -1.709106   -0.436782   -1.432568
 H   -2.712646    2.225301   -0.371322
 H   -2.822258    1.577930   -2.001323
 H   -4.848082    0.470480   -1.409827
 H   -4.714924    1.161495    0.204328
 H   -3.694031   -1.509938   -0.764582
 H   -5.452751   -1.507062    0.631997
 H   -1.475966    0.494048    2.341911
 H   -3.061885   -0.229324    2.606985
 H   -2.923614    1.285422    1.718080
 H    3.294810    0.869896    1.643171
 H    2.053021   -0.154040    2.356049
 H    1.619171    1.412219    1.664452
