54 
3kec_ligand_ani-2x.xyz
 C   82.142471    9.772074   35.641862
 C   82.837696   10.952453   35.925055
 C   86.430501    9.864558   35.727099
 N   87.090291    8.879827   35.047288
 C   88.540717    8.903946   34.927030
 C   89.892237   10.924615   31.365276
 C   89.924130    9.532197   31.433695
 C   89.506357    8.879111   32.584746
 C   89.027691    9.603823   33.677842
 C   88.964424   10.998264   33.593500
 C   89.396113   11.653229   32.448767
 C   82.849432    8.599665   35.397465
 C   84.230438   10.950174   35.953551
 C   84.934097    9.784233   35.683413
 C   84.241321    8.601392   35.417178
 O   87.010835   10.754289   36.332619
 C   90.351385   11.567430   30.089830
 O   90.758924   12.854554   30.165300
 O   90.369479   10.992117   29.033166
 N   80.794552   12.325992   36.205360
 N   80.646412   13.603679   36.495091
 N   81.777553   14.249008   36.665748
 N   82.727903   13.377665   36.484743
 C   82.118251   12.200255   36.200175
 C   79.353610   14.256454   36.642265
 C   78.682652   17.275795   33.645477
 C   78.619256   17.616457   34.994830
 C   78.836285   16.633351   35.960484
 C   79.114592   15.322806   35.601785
 C   79.186149   14.996794   34.246983
 C   78.968019   15.957168   33.274955
 O   78.484924   18.148822   32.621355
 C   78.197259   19.488619   32.956568
 H   81.056522    9.780579   35.621311
 H   86.581759    8.393050   34.323986
 H   88.907901    7.872627   34.955866
 H   88.910147    9.420809   35.816402
 H   90.280572    8.978789   30.570074
 H   89.546618    7.793191   32.636928
 H   88.585254   11.568071   34.437871
 H   89.305650   12.737701   32.399898
 H   82.315069    7.678050   35.182529
 H   84.778884   11.856799   36.190671
 H   84.781757    7.671150   35.257198
 H   90.833349   13.134274   31.087699
 H   79.305239   14.684546   37.649515
 H   78.613113   13.454884   36.571923
 H   78.402979   18.632298   35.308336
 H   78.786189   16.905551   37.014019
 H   79.422085   13.975141   33.957938
 H   79.014700   15.717506   32.216913
 H   77.270095   19.566993   33.539601
 H   79.017677   19.945754   33.525491
 H   78.075081   20.017021   32.010032
