30 
3kgt_ligand_ani-2x.xyz
 C   22.395675   43.140434   34.711649
 C   21.548539   42.512738   33.802671
 O   21.796079   42.728069   32.488526
 C   20.495208   41.701839   34.228102
 C   20.281533   41.508187   35.590238
 O   19.271600   40.731410   35.967906
 C   21.125850   42.129677   36.542339
 C   20.935781   41.937219   37.978360
 O   20.046275   41.198063   38.418367
 C   21.852679   42.696577   38.842905
 C   22.803866   43.452072   38.252150
 O   23.002945   43.569189   36.926104
 C   22.159740   42.935843   36.060848
 C   21.751164   42.638801   40.325012
 C   21.637253   41.421722   41.009571
 C   21.603004   41.368293   42.391889
 C   21.663612   42.547564   43.133330
 O   21.619241   42.440191   44.487591
 C   21.762253   43.773214   42.476815
 C   21.815709   43.809470   41.089557
 H   23.210080   43.769308   34.377099
 H   21.148200   42.245569   31.960053
 H   19.831587   41.212116   33.521509
 H   19.281090   40.701596   36.953580
 H   23.544964   44.027420   38.798237
 H   21.571038   40.500250   40.441015
 H   21.520893   40.420903   42.915174
 H   21.666098   43.322678   44.876231
 H   21.807233   44.699636   43.046896
 H   21.877112   44.778252   40.600474
