30 
3kgt_ligand_xtb.xyz
 C   22.343972   43.189077   34.720583
 C   21.526383   42.513792   33.822331
 O   21.732717   42.717114   32.503581
 C   20.529564   41.658155   34.280923
 C   20.331987   41.461447   35.640113
 O   19.370082   40.637705   36.046109
 C   21.158499   42.141174   36.571510
 C   20.970423   41.950787   38.000113
 O   20.095874   41.204584   38.454073
 C   21.887731   42.725127   38.839697
 C   22.807160   43.514608   38.240893
 O   22.971970   43.674639   36.924852
 C   22.155185   42.999502   36.080679
 C   21.793255   42.652687   40.303804
 C   21.556468   41.438875   40.946990
 C   21.470475   41.373314   42.321355
 C   21.613981   42.526182   43.087630
 O   21.522553   42.420352   44.439149
 C   21.842793   43.742722   42.454146
 C   21.931183   43.802301   41.077534
 H   23.113756   43.850521   34.363217
 H   21.106018   42.195934   31.985675
 H   19.889992   41.131123   33.588399
 H   19.384685   40.634074   37.043315
 H   23.526682   44.095267   38.802296
 H   21.441540   40.539121   40.365027
 H   21.290430   40.436700   42.824007
 H   21.628977   43.288990   44.845574
 H   21.945082   44.645191   43.043107
 H   22.086885   44.757235   40.597518
