78 
3kjf_ligand_aiqm1.xyz
 C   -0.681051   -4.060397    0.354614
 C   -1.185914   -2.897827   -0.429084
 O   -0.682470   -2.516460   -1.470078
 C   -2.412355   -2.146169    0.130227
 C   -3.408995   -1.865370   -0.988886
 C   -3.953634   -3.138080   -1.576297
 O   -3.662108   -4.246217   -1.204051
 O   -4.814998   -2.894098   -2.578096
 N   -1.983814   -0.898003    0.740056
 C   -1.824820   -0.785378    2.079604
 O   -2.107271   -1.657991    2.881146
 C   -1.347135    0.593619    2.583342
 C   -2.558175    1.476683    2.778408
 C   -2.638291    2.738713    2.356462
 C   -3.903988    3.558987    2.390706
 C   -4.328170    3.885256    0.951315
 C   -3.191024    4.547112    0.168991
 C   -1.918932    3.697965    0.185685
 C   -1.507679    3.426896    1.640089
 N   -0.295349    2.627896    1.770368
 N   -0.412418    1.241491    1.671441
 C    0.839135    0.733231    1.369011
 O    1.140807   -0.450011    1.326255
 N    1.633711    1.828388    1.071251
 C    3.025035    1.796567    0.603903
 C    3.212897    1.377793   -0.855613
 C    2.501728    2.261380   -1.896118
 C    0.966568    2.191593   -1.996785
 C    0.482639    0.828065   -2.419808
 O    0.771861    0.289693   -3.453568
 O   -0.332666    0.248851   -1.496161
 N    2.900131   -0.031729   -1.030857
 C    3.549286   -0.764728   -1.980687
 O    4.386698   -0.277870   -2.721890
 C    3.143879   -2.232594   -2.044033
 C    3.574226   -2.981665   -0.805044
 C    2.715161   -3.109591    0.289806
 C    3.127924   -3.772677    1.444290
 C    4.403589   -4.320491    1.515114
 C    5.265303   -4.199026    0.427914
 C    4.852456   -3.534598   -0.723204
 C    0.927649    3.013580    1.267172
 O    1.309130    4.147327    1.046246
 H   -0.425032   -3.724190    1.361839
 H    0.189321   -4.500044   -0.124380
 H   -1.475842   -4.801465    0.449251
 H   -2.876878   -2.743083    0.913669
 H   -4.246827   -1.271796   -0.617768
 H   -2.927902   -1.298096   -1.787761
 H   -5.102133   -3.753849   -2.911756
 H   -1.579400   -0.190992    0.141092
 H   -0.860476    0.403072    3.551646
 H   -3.395982    1.015466    3.281816
 H   -3.722016    4.487498    2.937662
 H   -4.692498    3.017314    2.914077
 H   -5.205637    4.532454    0.962437
 H   -4.617769    2.957689    0.449228
 H   -2.968593    5.523640    0.610602
 H   -3.503507    4.728747   -0.859619
 H   -1.095970    4.201671   -0.326212
 H   -2.084879    2.734147   -0.309664
 H   -1.291445    4.379998    2.124393
 H    3.581620    1.111964    1.247351
 H    3.404608    2.807333    0.742748
 H    4.280003    1.492855   -1.054334
 H    2.777104    3.299711   -1.704965
 H    2.912680    1.990000   -2.867263
 H    0.651965    2.887355   -2.779887
 H    0.479339    2.496089   -1.069421
 H   -0.455216   -0.681442   -1.770060
 H    2.290547   -0.487758   -0.364678
 H    2.059876   -2.291237   -2.169467
 H    3.620207   -2.645909   -2.928679
 H    1.729447   -2.660814    0.237580
 H    2.454425   -3.856295    2.288666
 H    4.726574   -4.836404    2.409622
 H    6.262034   -4.619164    0.476019
 H    5.529898   -3.434981   -1.563239
