78 
3kjf_ligand_xtb.xyz
 C   -0.902341   -3.998137    0.575459
 C   -1.160627   -2.819368   -0.286130
 O   -0.416941   -2.430033   -1.158869
 C   -2.449774   -2.038070    0.031561
 C   -3.225904   -1.745144   -1.252135
 C   -3.603098   -3.033073   -1.946833
 O   -3.308205   -4.132672   -1.564701
 O   -4.310822   -2.806517   -3.051816
 N   -2.082840   -0.799979    0.691600
 C   -1.961752   -0.747873    2.032433
 O   -2.304803   -1.633274    2.781063
 C   -1.457438    0.604094    2.571005
 C   -2.648933    1.493033    2.784099
 C   -2.713223    2.757780    2.393159
 C   -3.940181    3.607273    2.508586
 C   -4.415447    3.977151    1.098560
 C   -3.302485    4.674718    0.321662
 C   -2.055044    3.799340    0.249095
 C   -1.589679    3.445872    1.672486
 N   -0.408281    2.617357    1.672753
 N   -0.529953    1.227287    1.655923
 C    0.685093    0.695324    1.307586
 O    0.960750   -0.484385    1.270421
 N    1.487079    1.762646    0.974841
 C    2.880522    1.703389    0.590383
 C    3.149946    1.257217   -0.850306
 C    2.570501    2.170470   -1.946902
 C    1.047322    2.129940   -2.125744
 C    0.580127    0.723294   -2.409753
 O    0.806605    0.104054   -3.410738
 O   -0.175828    0.227930   -1.412981
 N    2.754325   -0.122955   -1.039861
 C    3.425627   -0.914906   -1.910979
 O    4.324635   -0.500192   -2.609265
 C    2.956780   -2.362771   -1.902160
 C    3.582959   -3.056810   -0.724734
 C    2.939451   -3.094702    0.506742
 C    3.535937   -3.714013    1.591220
 C    4.784320   -4.297964    1.461472
 C    5.435905   -4.255952    0.240306
 C    4.839336   -3.638717   -0.844352
 C    0.815614    2.964517    1.184009
 O    1.241966    4.076135    0.990719
 H   -0.993172   -3.701697    1.619864
 H    0.080597   -4.418268    0.379036
 H   -1.671723   -4.742298    0.372674
 H   -3.062453   -2.611129    0.733270
 H   -4.133064   -1.177167   -1.040363
 H   -2.618113   -1.160122   -1.946928
 H   -4.527860   -3.638850   -3.501711
 H   -1.610647   -0.107020    0.125449
 H   -0.977564    0.389269    3.539620
 H   -3.473820    1.021192    3.295301
 H   -3.705133    4.521100    3.059144
 H   -4.723442    3.072308    3.045290
 H   -5.287684    4.628531    1.165273
 H   -4.713341    3.067139    0.573390
 H   -3.051001    5.617487    0.811900
 H   -3.644253    4.904468   -0.688590
 H   -1.251909    4.326150   -0.268477
 H   -2.274798    2.876551   -0.294163
 H   -1.318909    4.373638    2.191840
 H    3.389606    1.011435    1.268943
 H    3.270469    2.714386    0.734353
 H    4.242300    1.293475   -0.985161
 H    2.872985    3.198253   -1.741420
 H    3.026482    1.851380   -2.885904
 H    0.797750    2.749604   -2.989253
 H    0.530362    2.520963   -1.252005
 H   -0.291213   -0.750852   -1.539468
 H    2.121860   -0.537735   -0.368558
 H    1.869938   -2.397149   -1.837576
 H    3.283003   -2.823031   -2.834522
 H    1.969172   -2.636130    0.625334
 H    3.022388   -3.738282    2.541705
 H    5.248430   -4.782332    2.308329
 H    6.412323   -4.705871    0.132816
 H    5.351432   -3.601110   -1.794616
