39 
3kku_ligand_aiqm1.xyz
 O   -5.990840  -37.390849    0.560774
Br   -0.898395  -38.646878    1.090522
 C   -1.882484  -38.127811    5.079548
 C   -2.667787  -36.988776    5.072878
 C   -4.324715  -40.120554    6.048380
 C   -4.596976  -39.218630    7.094122
 C   -1.389583  -38.630024    3.889346
 C   -2.985890  -36.371482    3.877501
 C   -4.779846  -39.887788    4.759780
 C   -5.326331  -38.059545    6.878112
 C   -6.637608  -35.074509    2.179109
 C   -7.471042  -36.174067    2.852923
 C   -3.652046  -36.807354    0.576433
 N   -6.118535  -38.176808    3.437123
 N   -5.344796  -35.514708    1.680490
 N   -6.533137  -36.737193    5.101146
 O   -2.776475  -36.181124    1.500509
 C   -5.124615  -36.602021    0.923381
 C   -1.690001  -37.994084    2.697338
 C   -6.711404  -37.003066    3.830484
 C   -2.509592  -36.866812    2.667672
 C   -5.517883  -38.721795    4.553661
 C   -5.790787  -37.806394    5.583311
 H   -1.642097  -38.619307    6.008402
 H   -3.044557  -36.582284    5.997316
 H   -3.753949  -41.016581    6.254680
 H   -4.231515  -39.438218    8.088310
 H   -0.756431  -39.503922    3.879497
 H   -3.600211  -35.484720    3.877884
 H   -4.578894  -40.582177    3.954396
 H   -5.538985  -37.369073    7.682396
 H   -6.437125  -34.279682    2.896087
 H   -7.229866  -34.650828    1.364555
 H   -8.292153  -35.685785    3.373777
 H   -7.880070  -36.827095    2.084000
 H   -3.472844  -37.882433    0.481739
 H   -3.448929  -36.343381   -0.393725
 H   -4.518790  -34.978519    1.895882
 H   -6.163816  -38.533722    2.495260
