18 
3kpu_ligand_ani-2x.xyz
 O   27.000290   45.485497   14.074815
 C   28.152805   46.222558   15.971987
 C   28.812588   45.921057   17.177880
 C   27.632092   45.188275   15.230506
 C   27.462789   41.449790   15.552337
 N   28.975316   44.713531   17.663205
 C   27.282713   42.703469   15.029128
 C   28.634247   42.367056   17.454043
 C   28.146755   41.280064   16.779387
 C   27.777826   43.849872   15.707188
 C   28.464279   43.679590   16.938541
 H   26.681485   44.681444   13.646828
 H   28.052703   47.247143   15.627490
 H   29.227448   46.736484   17.771024
 H   27.080430   40.578793   15.026379
 H   26.753026   42.811412   14.082909
 H   29.163055   42.272381   18.396763
 H   28.283253   40.280281   17.184288
