15 
3kpv_ligand_dft.xyz
 N   14.697357   -5.169133   39.882139
 C   15.991558   -5.009157   40.318585
 N   16.408033   -3.773227   40.276745
 C   15.320244   -3.077130   39.782804
 C   15.112415   -1.714944   39.494463
 N   16.062747   -0.780784   39.717951
 N   13.928319   -1.331641   39.000397
 C   12.987077   -2.267836   38.810482
 N   13.048314   -3.575970   39.042055
 C   14.244921   -3.922163   39.527888
 H   14.170426   -6.026390   39.826364
 H   16.579156   -5.851882   40.657106
 H   15.906251    0.151242   39.369694
 H   16.997688   -1.071735   39.952850
 H   12.045494   -1.900250   38.409477
