19 
3kpw_ligand_xtb.xyz
 N   28.391375   42.145085   18.602067
 C   28.504186   43.402326   18.108227
 N   28.966435   44.303744   18.949542
 C   29.106081   45.568776   18.534659
 C   28.796837   45.997223   17.275736
 C   28.297823   45.060133   16.342490
 C   27.953932   45.416145   15.023079
 C   27.473870   44.480502   14.149593
 C   27.317361   43.149548   14.557236
 C   27.643354   42.773002   15.833453
 C   28.139228   43.712223   16.754797
 H   28.667479   41.996299   19.554930
 H   28.058088   41.379637   18.050429
 H   29.491602   46.246083   19.285875
 H   28.926044   47.027967   16.984941
 H   28.077937   46.445112   14.717232
 H   27.211867   44.759992   13.139379
 H   26.936933   42.420169   13.857102
 H   27.513968   41.740334   16.125234
