19 
3kqp_ligand_aiqm1.xyz
 C   27.956649   43.394453   16.945194
 N   29.765727   44.673294   19.933398
 C   29.099509   44.618710   18.705243
 C   28.775009   45.834323   18.035823
 C   28.067269   45.825174   16.865845
 C   27.637521   44.605752   16.281656
 N   26.938376   44.653700   15.111909
 C   26.550508   43.508654   14.594409
 C   26.814758   42.243521   15.174332
 C   27.517858   42.189343   16.348440
 C   28.693082   43.423271   18.156825
 H   30.358876   45.480886   20.041010
 H   30.256348   43.825849   20.172724
 H   29.088428   46.775137   18.474909
 H   27.815977   46.745752   16.355866
 H   25.995202   43.565020   13.664884
 H   26.460407   41.344844   14.686825
 H   27.741209   41.242476   16.825908
 H   28.923588   42.486741   18.656200
