19 
3kqp_ligand_ani-2x.xyz
 C   27.956813   43.394140   16.945424
 N   29.774604   44.672249   19.925565
 C   29.100386   44.617436   18.704847
 C   28.775055   45.833166   18.036839
 C   28.068011   45.823771   16.869591
 C   27.636176   44.603432   16.284064
 N   26.934848   44.652000   15.116176
 C   26.548753   43.511950   14.598098
 C   26.813290   42.242989   15.172763
 C   27.515986   42.187827   16.344032
 C   28.689333   43.423295   18.157630
 H   30.350270   45.491868   20.050001
 H   30.271927   43.828445   20.175076
 H   29.095081   46.775712   18.477337
 H   27.815086   46.743900   16.352350
 H   25.989338   43.570729   13.664195
 H   26.457199   41.343095   14.678757
 H   27.743252   41.237435   16.822609
 H   28.920892   42.483461   18.656046
