18 
3kqy_ligand_ani-2x.xyz
 N   28.116788   57.695176  -27.456992
 O   25.126693   58.720313  -22.980805
 C   24.167814   61.395521  -25.281213
 C   24.226805   60.571611  -24.148117
 C   24.953650   61.159644  -26.401588
 N   26.682514   59.594437  -27.346142
 N   26.810947   58.249971  -25.530648
 C   27.223429   58.534380  -26.816667
 C   25.085933   59.480069  -24.106083
 C   25.808810   60.058996  -26.369742
 C   25.850612   59.227346  -25.241429
 H   28.403664   58.086654  -28.346132
 H   28.918924   57.433886  -26.897800
 H   25.909872   58.155414  -23.006683
 H   23.488969   62.243926  -25.278359
 H   23.609238   60.776543  -23.278889
 H   24.911362   61.799536  -27.277231
 H   26.768977   57.293575  -25.202481
