53 
3krj_ligand_ani-2x.xyz
 N    9.166059   27.034280    3.779182
 C    9.059156   26.930637    4.927720
 C    8.945099   26.714769    6.335861
 C    9.096703   25.491256    7.000698
 N    8.901596   25.689409    8.304797
 C    8.642332   27.004729    8.407803
 N    8.652979   27.678721    7.247386
 C    8.340633   27.704893    9.691988
 O    8.253425   27.166555   10.778709
 N    8.166314   29.029464    9.435421
 C    7.555558   29.999733   10.256058
 C    7.779402   30.021377   11.625870
 C    7.269130   31.060809   12.393565
 C    6.519368   32.090169   11.816345
 C    6.279517   32.034462   10.445571
 C    6.762511   30.997126    9.647993
 C    6.449291   30.932830    8.196932
 C    5.947077   29.814773    7.650381
 C    5.787248   29.587422    6.173565
 C    6.561082   30.636635    5.373556
 C    6.286173   32.034149    5.926250
 C    6.809509   32.139698    7.359511
 C    5.964426   33.223087   12.662390
 C    4.431296   33.126225   12.803571
 C    3.803138   34.491251   13.120540
 N    4.746713   35.345932   13.908595
 C    5.961589   35.718291   13.096613
 C    6.339229   34.603631   12.109651
 H    9.331146   24.522977    6.569066
 H    8.267637   29.246104    8.450268
 H    8.355815   29.219100   12.075161
 H    7.461283   31.063901   13.465403
 H    5.675231   32.809216    9.972311
 H    5.670663   28.986466    8.298760
 H    4.716764   29.611648    5.923212
 H    6.127417   28.571468    5.937046
 H    6.300207   30.573687    4.310769
 H    7.640058   30.426479    5.441766
 H    5.206298   32.235511    5.901767
 H    6.760286   32.798668    5.299474
 H    7.908560   32.217970    7.335442
 H    6.465043   33.060403    7.846535
 H    6.412963   33.128340   13.660774
 H    4.183047   32.382952   13.571231
 H    4.000692   32.757614   11.865710
 H    2.871704   34.379923   13.672899
 H    3.574620   35.009506   12.188048
 H    5.072592   34.790675   14.734865
 H    4.271419   36.203732   14.235994
 H    6.779112   35.900617   13.793668
 H    5.769256   36.650057   12.561364
 H    5.833048   34.760829   11.148238
 H    7.412989   34.649745   11.903506
