35 
3l0v_ligand_ani-2x.xyz
 N   -0.554802   -0.644515   -0.062952
 N    0.208383   -1.822696   -0.274920
 C    0.238917    0.488098   -0.116683
 N   -4.921203    0.816075   -0.154802
 C   -4.356345   -0.410411    0.100712
 C   -2.928686   -0.124494    0.602829
 N   -2.927532    1.332591    0.660329
 C   -4.063787    1.892321    0.126001
 O   -4.306771    3.059292   -0.064774
 O   -4.869459   -1.493917   -0.048698
 C   -2.736536   -0.779051    1.969082
 C   -1.956665   -0.677775   -0.464790
 C    1.611256   -0.011979   -0.204817
 C    1.544615   -1.388837   -0.256941
 C    2.704925   -2.152832   -0.342815
 C    3.911964   -1.481981   -0.377033
 C    3.980984   -0.070099   -0.325533
 C    2.818972    0.686522   -0.237196
 O   -0.157218    1.648029   -0.092715
 O    5.237198    0.449853   -0.368069
 C    5.345858    1.854444   -0.318221
 H   -0.004954   -2.497775    0.460688
 H   -5.851324    0.941627   -0.523985
 H   -2.059402    1.854437    0.613016
 H   -1.726875   -0.607617    2.351203
 H   -2.909889   -1.856166    1.877458
 H   -3.454054   -0.361283    2.679549
 H   -2.087998   -0.091189   -1.381587
 H   -2.225280   -1.716823   -0.673778
 H    2.658545   -3.237744   -0.379763
 H    4.849115   -2.025997   -0.443737
 H    2.807445    1.772236   -0.192807
 H    4.929266    2.254503    0.615038
 H    6.412647    2.078381   -0.363691
 H    4.838391    2.324872   -1.170102
