35 
3l0v_ligand_aiqm1.xyz
 N   -0.552296   -0.773697   -0.094571
 N    0.211627   -1.869622   -0.591391
 C    0.223936    0.360957    0.020026
 N   -5.065610    0.590750    0.023951
 C   -4.299925   -0.511266    0.282141
 C   -2.868357    0.006092    0.493114
 N   -3.024723    1.403298    0.142977
 C   -4.314477    1.780533   -0.054285
 O   -4.762229    2.879072   -0.268450
 O   -4.671725   -1.657287    0.357696
 C   -2.481733   -0.184485    1.959711
 C   -1.955247   -0.775512   -0.470689
 C    1.601730   -0.102002   -0.166076
 C    1.547903   -1.447926   -0.482201
 C    2.711677   -2.175926   -0.719299
 C    3.918873   -1.498909   -0.627795
 C    3.979442   -0.127492   -0.312125
 C    2.811169    0.591440   -0.077786
 O   -0.200662    1.481339    0.261539
 O    5.234358    0.396036   -0.262020
 C    5.340174    1.780634    0.033754
 H   -0.001657   -2.698126   -0.044265
 H   -6.055511    0.571962   -0.140487
 H   -2.279877    2.075098    0.238629
 H   -1.516217    0.281476    2.154179
 H   -2.419985   -1.247812    2.195024
 H   -3.232008    0.282926    2.600916
 H   -2.082574   -0.401865   -1.495376
 H   -2.299151   -1.807192   -0.443598
 H    2.684412   -3.225413   -0.975496
 H    4.852258   -2.016576   -0.805882
 H    2.801659    1.643985    0.160570
 H    4.933268    2.006319    1.021717
 H    6.402101    2.003648    0.019012
 H    4.829077    2.385643   -0.717664
