38 
3l54_ligand_aiqm1.xyz
 C   27.562326   13.648148   18.961005
 N   28.851085   13.377043   19.019987
 N   29.085337   12.896174   20.263715
 C   27.955424   12.852803   21.015429
 N   27.849422   12.433748   22.282840
 C   26.617769   12.494500   22.767984
 C   25.477060   12.956916   22.063411
 C   25.633827   13.393481   20.754383
 C   26.918722   13.340044   20.198230
 C   24.150896   12.967564   22.726846
 C   23.763196   11.881017   23.563338
 C   22.536129   11.869238   24.170452
 C   21.624912   12.941085   23.990077
 N   20.415100   12.846691   24.613892
 C   19.565432   13.829803   24.422484
 C   19.838966   14.971720   23.632435
 C   21.061385   15.102111   23.017752
 C   21.348397   16.326643   22.222142
 C   20.470374   16.741143   21.218049
 C   20.749771   17.905064   20.507823
 N   21.819436   18.676614   20.730401
 C   22.650054   18.280775   21.700733
 C   22.464312   17.131045   22.465820
 C   22.003032   14.039573   23.174734
 C   23.275806   14.013592   22.542766
 H   27.141752   14.047765   18.052515
 H   30.012163   12.622164   20.530529
 H   26.497641   12.175915   23.798051
 H   24.775536   13.750006   20.196239
 H   24.439752   11.045640   23.694807
 H   22.218533   11.044532   24.794069
 H   18.603525   13.742928   24.914828
 H   19.089681   15.747247   23.531899
 H   19.582097   16.164022   20.991340
 H   20.079557   18.234650   19.723055
 H   23.511211   18.913867   21.878218
 H   23.178801   16.867387   23.236195
 H   23.567581   14.833339   21.901526
