38 
3l54_ligand_dft.xyz
 C   27.522812   13.626045   18.938519
 N   28.815686   13.387863   18.997062
 N   29.063907   12.941012   20.247732
 C   27.939626   12.886532   21.008847
 N   27.848285   12.488815   22.280525
 C   26.618585   12.535144   22.768049
 C   25.463859   12.956770   22.057631
 C   25.606200   13.362823   20.737283
 C   26.888706   13.333496   20.182806
 C   24.143768   12.966266   22.732898
 C   23.756698   11.884605   23.570415
 C   22.531868   11.870241   24.179008
 C   21.616721   12.937601   23.994467
 N   20.403309   12.845190   24.607629
 C   19.556891   13.827411   24.416624
 C   19.833090   14.972550   23.635729
 C   21.055933   15.100828   23.021993
 C   21.359461   16.318660   22.227703
 C   20.526736   16.713364   21.179907
 C   20.828552   17.876957   20.479646
 N   21.877035   18.656746   20.748769
 C   22.666194   18.276950   21.756318
 C   22.457155   17.132375   22.517746
 C   21.999014   14.038044   23.178570
 C   23.270397   14.015952   22.552360
 H   27.085297   13.997326   18.022176
 H   30.002394   12.693340   20.516012
 H   26.513727   12.236079   23.809297
 H   24.741858   13.671800   20.156149
 H   24.434104   11.045384   23.699575
 H   22.214951   11.041552   24.803253
 H   18.590146   13.737242   24.908931
 H   19.087862   15.756977   23.547425
 H   19.663254   16.115004   20.906330
 H   20.193984   18.197639   19.656259
 H   23.512989   18.925480   21.969819
 H   23.130772   16.884928   23.332147
 H   23.564174   14.851008   21.924389
