38 
3l54_ligand_xtb.xyz
 C   27.494599   13.632476   18.954445
 N   28.777064   13.387444   19.022248
 N   29.043796   12.941906   20.258953
 C   27.927466   12.893227   21.018974
 N   27.813934   12.507915   22.284839
 C   26.594354   12.555096   22.771271
 C   25.448350   12.973917   22.061651
 C   25.584438   13.381897   20.742726
 C   26.862053   13.344741   20.191948
 C   24.138253   12.979501   22.726574
 C   23.767736   11.910138   23.571566
 C   22.545764   11.887582   24.176945
 C   21.629039   12.943442   23.986927
 N   20.427795   12.862822   24.590302
 C   19.571406   13.826089   24.399718
 C   19.832502   14.962021   23.617856
 C   21.058730   15.092479   23.007230
 C   21.365787   16.301842   22.226594
 C   20.528863   16.712026   21.191440
 C   20.848771   17.866562   20.496338
 N   21.907162   18.611171   20.766156
 C   22.695527   18.230264   21.756734
 C   22.476505   17.092489   22.515735
 C   22.003970   14.042456   23.163731
 C   23.259679   14.019954   22.530216
 H   27.057103   14.002153   18.048792
 H   29.983681   12.693432   20.520015
 H   26.504620   12.259986   23.808041
 H   24.729854   13.693806   20.159885
 H   24.456033   11.089008   23.707437
 H   22.240304   11.065681   24.805025
 H   18.615295   13.715343   24.895567
 H   19.086709   15.737085   23.522635
 H   19.657582   16.130755   20.929643
 H   20.227585   18.215666   19.681722
 H   23.546477   18.870762   21.949272
 H   23.140336   16.832086   23.326448
 H   23.536876   14.840784   21.884401
