60 
3l5c_ligand_ani-2x.xyz
 C   -4.664727   -0.443944   -0.268711
 N   -4.621586   -1.840446   -0.737306
 O   -3.225029    1.356327   -1.128766
 C   -3.542127   -2.058655   -1.590456
 N   -3.022561   -0.802654   -1.903395
 O    5.019787   -0.036636    2.216954
 C   -3.565482    0.192474   -1.127415
 N   -3.060506   -3.136848   -2.069883
 C   -4.290232   -0.323188    1.207646
 N    4.078335   -0.175812    0.146749
 C   -5.989710    0.256987   -0.609382
 N    6.167354    0.774326    0.383476
 C   -7.220289   -0.077581    0.245463
 N   11.916407    3.344741    2.932539
 C   -7.597902   -1.559594    0.198135
 C   -8.401063    0.777578   -0.223623
 C   -1.791651   -0.607421   -2.660977
 C   -0.545801   -0.699793   -1.801462
 C   -0.049285   -1.948599   -1.427081
 C    1.094622   -2.039403   -0.641426
 C    1.758458   -0.893238   -0.207119
 C    1.249188    0.354525   -0.566053
 C    0.103542    0.448796   -1.345985
 C    2.986507   -0.989432    0.663497
 C    7.335425    1.292217    0.969784
 C    7.692104    1.055142    2.301227
 C    8.172371    2.060634    0.151544
 C    8.873457    1.588017    2.794472
 C    9.349478    2.591940    0.649365
 C    5.096352    0.165848    1.016798
 C    9.710281    2.357494    1.981086
 C   10.932301    2.904341    2.508075
 H   -4.773503   -2.561572   -0.042212
 H   -3.577314   -3.949057   -1.737261
 H   -4.205512    0.733040    1.482219
 H   -3.328816   -0.811949    1.394479
 H   -5.044543   -0.794591    1.847314
 H    4.317006   -0.326528   -0.823548
 H   -5.796869    1.336334   -0.549912
 H   -6.211139    0.031447   -1.661190
 H    6.045721    1.013898   -0.589679
 H   -7.008031    0.196200    1.288952
 H   -6.861551   -2.198736    0.694327
 H   -7.692833   -1.898773   -0.840875
 H   -8.560697   -1.726388    0.694980
 H   -8.662014    0.537812   -1.262485
 H   -8.170656    1.848196   -0.175052
 H   -9.290022    0.597059    0.391443
 H   -1.784626   -1.379556   -3.435131
 H   -1.863893    0.372757   -3.138014
 H   -0.583163   -2.842431   -1.742284
 H    1.479717   -3.017573   -0.359936
 H    1.761394    1.253966   -0.232766
 H   -0.297179    1.427932   -1.601391
 H    3.295047   -2.038308    0.780378
 H    2.781103   -0.615050    1.671245
 H    7.042800    0.464808    2.932966
 H    7.897684    2.244337   -0.884168
 H    9.150335    1.406153    3.828985
 H    9.993937    3.188433    0.010742
