60 
3l5c_ligand_aiqm1.xyz
 C   -4.274351   -0.290801   -0.271417
 N   -4.447836   -1.496039   -1.097846
 O   -2.602500    1.443652   -0.713877
 C   -3.340415   -1.715579   -1.901625
 N   -2.600793   -0.537159   -1.881943
 O    4.318827   -0.231711    2.047393
 C   -3.068204    0.353775   -0.956608
 N   -2.995890   -2.727160   -2.598641
 C   -3.870092   -0.647977    1.161809
 N    4.374784   -1.698012    0.307049
 C   -5.466518    0.667369   -0.350962
 N    5.917471   -0.003929    0.413198
 C   -6.663065    0.366817    0.549969
 N    9.676613    5.289486    2.399230
 C   -7.256393   -1.022760    0.323368
 C   -7.736719    1.430796    0.319835
 C   -1.326761   -0.367135   -2.580092
 C   -0.167005   -0.871915   -1.753766
 C    0.236204   -2.206850   -1.837458
 C    1.287603   -2.676978   -1.052826
 C    1.953237   -1.830397   -0.167394
 C    1.550830   -0.494612   -0.084966
 C    0.500386   -0.020030   -0.868741
 C    3.105066   -2.324741    0.675039
 C    6.652766    1.089899    0.880516
 C    6.370780    1.757330    2.080749
 C    7.721997    1.520646    0.085899
 C    7.157557    2.837913    2.458613
 C    8.503564    2.599435    0.469838
 C    4.821562   -0.608541    1.003442
 C    8.223717    3.267544    1.664000
 C    9.027136    4.386104    2.070929
 H   -4.887600   -2.309236   -0.698257
 H   -3.672705   -3.478140   -2.494337
 H   -3.623642    0.259496    1.711489
 H   -2.998336   -1.306725    1.157374
 H   -4.679502   -1.156189    1.683111
 H    4.654628   -1.785661   -0.655465
 H   -5.084466    1.661238   -0.102715
 H   -5.801033    0.701119   -1.394404
 H    6.271261   -0.429438   -0.426136
 H   -6.338220    0.436861    1.592529
 H   -6.590375   -1.821509    0.658978
 H   -7.462301   -1.180959   -0.737054
 H   -8.195242   -1.131871    0.868242
 H   -8.125396    1.357669   -0.698671
 H   -7.336774    2.435490    0.459376
 H   -8.571837    1.297543    1.008279
 H   -1.400647   -0.914138   -3.518631
 H   -1.222689    0.699503   -2.781164
 H   -0.285204   -2.880220   -2.505332
 H    1.588880   -3.716268   -1.123262
 H    2.060363    0.167880    0.604806
 H    0.193066    1.015692   -0.783322
 H    3.211036   -3.408442    0.564237
 H    2.938727   -2.098536    1.725082
 H    5.552556    1.431247    2.701696
 H    7.944404    1.006936   -0.842193
 H    6.950829    3.361950    3.382187
 H    9.327060    2.926265   -0.149260
