88 
3l5e_ligand_dft.xyz
 C   -3.447701   -0.966265   -0.151283
 N   -3.497704   -1.223155    1.281893
 O   -1.944911   -2.149708   -1.694556
 C   -2.434008   -1.963731    1.734383
 N   -1.794962   -2.464620    0.582005
 O    4.962388    0.533981   -2.419002
 C   -2.327987   -1.926511   -0.565918
 N   -2.158831   -2.133062    2.966994
 C   -4.740847   -1.364016   -0.884901
 N    4.994671    0.340930   -0.102635
 C   -2.994535    0.470170   -0.489853
 N    6.425657   -0.875007   -1.289961
 C   -5.922141   -0.385773   -0.838059
 C   -0.506244   -3.138074    0.572954
 C    0.627574   -2.139498    0.479488
 C    1.219673   -1.863306   -0.754767
 C    2.196386   -0.880971   -0.866777
 C    2.597868   -0.150660    0.254781
 C    2.009057   -0.431058    1.486376
 C    1.032238   -1.414366    1.600246
 C   -6.376070   -0.023927    0.584030
 C   -7.615444    0.876908    0.585334
 C   -8.767926    0.254334   -0.204227
 C   -8.328398   -0.077448   -1.631806
 C   -7.095817   -0.984056   -1.630934
 C   -1.604175    0.846296    0.029239
 C    3.678336    0.903327    0.124893
 C    5.589259   -0.595437    0.833040
 C    6.866600   -1.034937    0.088950
 C    5.412795    0.058027   -1.392474
 C    8.086228   -0.181883    0.453892
 C    9.346433   -0.539383   -0.334243
 C   10.559809    0.281117    0.099812
 C   -1.242959    2.319903   -0.193382
 C    0.257891    2.548653    0.035982
 C    0.661396    4.011427   -0.161639
 C   -0.167089    4.943923    0.725669
 C   -1.664933    4.732928    0.491102
 C   -2.060150    3.268019    0.696562
 H   -3.901739   -0.567289    1.931306
 H   -1.365265   -2.754636    3.096850
 H   -5.061171   -2.331818   -0.477494
 H   -4.470787   -1.532413   -1.934751
 H   -3.015980    0.575648   -1.581401
 H   -3.747941    1.159290   -0.091710
 H    7.067532   -0.946587   -2.064385
 H   -5.627537    0.546785   -1.342942
 H   -0.502371   -3.811156   -0.287288
 H   -0.434412   -3.752198    1.475288
 H    0.886942   -2.400878   -1.637661
 H    2.649657   -0.666426   -1.830994
 H    2.310216    0.131513    2.367250
 H    0.564097   -1.595236    2.563615
 H   -6.586770   -0.949530    1.138824
 H   -5.571034    0.490624    1.122808
 H   -7.923961    1.082744    1.616753
 H   -7.354675    1.845109    0.134612
 H   -9.629537    0.931804   -0.216139
 H   -9.094635   -0.667502    0.297385
 H   -8.093485    0.855585   -2.163347
 H   -9.146103   -0.556848   -2.182252
 H   -6.776937   -1.191607   -2.659822
 H   -7.362967   -1.953007   -1.183594
 H   -1.524423    0.621571    1.102253
 H   -0.852597    0.224607   -0.473417
 H    3.473554    1.559140   -0.725831
 H    3.712271    1.523006    1.028597
 H    4.921452   -1.448338    1.021211
 H    5.814601   -0.110965    1.789121
 H    7.086055   -2.089480    0.290467
 H    8.284070   -0.313874    1.526619
 H    7.836239    0.876774    0.302625
 H    9.172567   -0.377437   -1.405975
 H    9.560383   -1.609651   -0.210046
 H   10.781188    0.121199    1.161113
 H   10.380049    1.352037   -0.045776
 H   11.451064    0.008718   -0.474163
 H   -1.459687    2.570823   -1.244609
 H    0.832621    1.901328   -0.636840
 H    0.510460    2.231997    1.059403
 H    1.731231    4.138735    0.042856
 H    0.508298    4.286386   -1.214766
 H    0.103380    5.989854    0.539435
 H    0.063634    4.739446    1.781131
 H   -2.250874    5.377562    1.156704
 H   -1.913639    5.031642   -0.537249
 H   -1.891481    2.992091    1.748759
 H   -3.133909    3.148676    0.509033
