88 
3l5e_ligand_ani-2x.xyz
 C   -2.726251   -2.302974   -0.092990
 N   -2.684196   -2.477199    1.363276
 O   -0.883859   -2.913048   -1.601791
 C   -1.414710   -2.782842    1.818658
 N   -0.654733   -3.119320    0.683722
 O    4.374147    2.136277   -2.152368
 C   -1.332094   -2.814686   -0.479405
 N   -1.073904   -2.737739    3.042592
 C   -3.762249   -3.213807   -0.778362
 N    4.835326    1.926079    0.112194
 C   -2.879641   -0.829984   -0.520995
 N    6.403971    1.345635   -1.344319
 C   -5.231508   -2.771144   -0.767113
 C    0.800300   -3.248365    0.701575
 C    1.516800   -1.909443    0.680271
 C    1.706775   -1.237180   -0.532183
 C    2.327024    0.006258   -0.569950
 C    2.770765    0.621962    0.605871
 C    2.585612   -0.051934    1.812852
 C    1.967180   -1.299663    1.850158
 C   -5.809408   -2.628131    0.645923
 C   -7.296601   -2.263911    0.626380
 C   -8.112436   -3.273416   -0.182368
 C   -7.554942   -3.410482   -1.600336
 C   -6.069813   -3.777080   -1.571021
 C   -1.765505    0.083700   -0.010891
 C    3.454283    1.977061    0.556700
 C    5.861887    1.251365    0.887414
 C    7.077469    1.295239   -0.052696
 C    5.118552    1.836872   -1.236711
 C    7.986229    2.499073    0.221483
 C    9.197127    2.587646   -0.705076
 C   10.129004    3.737677   -0.329140
 C   -1.870989    1.544704   -0.463648
 C   -0.597305    2.303285   -0.066667
 C   -0.632305    3.770997   -0.494300
 C   -1.868086    4.476763    0.070293
 C   -3.148091    3.735504   -0.323418
 C   -3.100807    2.265348    0.103751
 H   -3.201005   -1.845491    1.963371
 H   -0.111469   -3.038713    3.163403
 H   -3.679363   -4.200936   -0.306500
 H   -3.435135   -3.331320   -1.819414
 H   -2.904259   -0.809022   -1.617934
 H   -3.854665   -0.467338   -0.168051
 H    6.905362    1.556158   -2.193114
 H   -5.316536   -1.796591   -1.275442
 H    1.065031   -3.833599   -0.182919
 H    1.077231   -3.834001    1.583044
 H    1.326682   -1.679305   -1.449519
 H    2.473380    0.511841   -1.522913
 H    2.926288    0.404073    2.740788
 H    1.836007   -1.796300    2.810992
 H   -5.670677   -3.583351    1.175568
 H   -5.257183   -1.874190    1.217735
 H   -7.680020   -2.192057    1.651436
 H   -7.413460   -1.265994    0.178765
 H   -9.169659   -2.982128   -0.209171
 H   -8.069711   -4.252759    0.316516
 H   -7.680992   -2.455931   -2.132143
 H   -8.121367   -4.159665   -2.166705
 H   -5.677225   -3.857078   -2.593649
 H   -5.951284   -4.771460   -1.112490
 H   -1.743750    0.054938    1.088100
 H   -0.796224   -0.310461   -0.344078
 H    2.939778    2.635459   -0.152234
 H    3.423233    2.454241    1.543384
 H    5.574004    0.210883    1.093407
 H    6.033181    1.756647    1.843740
 H    7.669158    0.373782    0.017051
 H    8.337490    2.433464    1.261081
 H    7.389745    3.418387    0.151446
 H    8.866976    2.720353   -1.743999
 H    9.748656    1.638056   -0.675024
 H   10.513716    3.619119    0.690395
 H    9.602234    4.697878   -0.375426
 H   10.987575    3.794901   -1.006040
 H   -1.942391    1.563987   -1.565773
 H    0.281397    1.798491   -0.490887
 H   -0.489050    2.246981    1.028153
 H    0.286484    4.281261   -0.177391
 H   -0.656674    3.823254   -1.592623
 H   -1.907056    5.519004   -0.269510
 H   -1.794102    4.507910    1.167319
 H   -4.026721    4.229112    0.109159
 H   -3.268474    3.783643   -1.415753
 H   -3.064218    2.205189    1.203161
 H   -4.023754    1.759982   -0.205377
