56 
3l5f_ligand_xtb.xyz
 C   -0.551970    2.880838   -1.286267
 N   -0.301416    3.455136   -0.023126
 O   -0.296528    2.769145    2.157641
 C   -0.444036    2.550223    0.979168
 N   -0.959583    1.608587   -1.052343
 C   -0.835478    1.217309    0.331191
 N   -0.455629    3.393330   -2.434056
 C    0.287501    0.190626    0.555588
 C   -2.632489   -0.664026    0.731274
 C   -3.931787   -0.891476    1.511520
 C   -4.432491   -2.323338    1.351532
 C   -4.662192   -2.642534   -0.121382
 C   -3.372995   -2.431810   -0.906611
 C   -2.861696   -1.001955   -0.742475
 C   -2.179833    0.783730    0.949161
 C    1.652607    0.716819    0.112367
 C    2.765509   -0.331634    0.225472
 C    4.135580    0.341753    0.113714
 C    5.263809   -0.677368    0.240051
 C    5.132896   -1.755437   -0.830323
 C    3.772487   -2.435807   -0.725581
 C    2.647958   -1.411669   -0.851854
 C    0.082210    4.826456    0.185994
 H   -1.021971    0.955104   -1.811460
 H   -0.168801    4.363838   -2.447802
 H    0.046280   -0.717573    0.003477
 H    0.318895   -0.045483    1.620138
 H   -1.874376   -1.342689    1.134656
 H   -3.766417   -0.674705    2.568888
 H   -4.694966   -0.200827    1.145285
 H   -5.360083   -2.454351    1.912328
 H   -3.693359   -3.015466    1.761724
 H   -5.440519   -1.986775   -0.517950
 H   -5.003114   -3.673718   -0.233450
 H   -3.541456   -2.641369   -1.965117
 H   -2.613893   -3.130160   -0.545051
 H   -3.588059   -0.303323   -1.163261
 H   -1.931586   -0.898193   -1.303309
 H   -2.097434    0.959381    2.024970
 H   -2.949439    1.456702    0.561641
 H    1.915952    1.572868    0.738859
 H    1.597617    1.066503   -0.922313
 H    2.694624   -0.808368    1.209784
 H    4.208297    0.845757   -0.853263
 H    4.236631    1.099781    0.893689
 H    5.222368   -1.141646    1.228203
 H    6.228505   -0.174040    0.147654
 H    5.235289   -1.300044   -1.818079
 H    5.929640   -2.493576   -0.717455
 H    3.694281   -2.940935    0.240141
 H    3.672092   -3.192029   -1.507252
 H    2.697193   -0.940593   -1.836811
 H    1.687204   -1.924035   -0.773207
 H    1.038499    5.036798   -0.298739
 H    0.179740    4.974857    1.260548
 H   -0.680370    5.501309   -0.208221
