30 
3l5r_ligand_aiqm1.xyz
 C   15.011080  -33.267452  -20.460492
 C   14.829214  -34.289082  -19.514194
 C   14.922907  -35.624900  -19.870649
 C   15.289920  -33.607637  -21.766034
 C   15.394010  -34.951159  -22.163062
 C   15.204785  -35.938607  -21.197666
 O   15.283974  -37.265724  -21.498872
 C   15.545740  -37.609419  -22.779186
 C   15.757992  -36.760085  -23.803856
 C   15.695064  -35.306655  -23.553686
 C   16.043695  -37.310346  -25.153116
 C   17.063018  -36.766204  -25.943007
 C   17.345081  -37.290714  -27.193354
 C   16.604941  -38.376497  -27.671300
 C   15.589542  -38.920473  -26.904585
 C   15.310570  -38.393078  -25.643476
 O   16.960362  -38.828922  -28.916855
 O   18.344824  -36.755911  -27.943618
 O   14.557300  -33.904083  -18.239942
 O   15.862974  -34.456428  -24.415651
 H   14.928792  -32.238081  -20.143447
 H   14.784997  -36.425806  -19.154745
 H   15.436768  -32.852041  -22.524927
 H   15.577405  -38.683911  -22.891644
 H   17.624358  -35.904595  -25.608861
 H   15.009169  -39.752159  -27.289094
 H   14.502648  -38.816468  -25.061552
 H   16.350335  -39.516543  -29.190149
 H   18.359145  -37.221521  -28.786524
 H   14.455391  -34.679601  -17.684656
