30 
3l5r_ligand_xtb.xyz
 C   15.047628  -33.283815  -20.497912
 C   14.825522  -34.276392  -19.533444
 C   14.899971  -35.612843  -19.886209
 C   15.338932  -33.639789  -21.788948
 C   15.420499  -34.984469  -22.170323
 C   15.196606  -35.966138  -21.201116
 O   15.258151  -37.288355  -21.491428
 C   15.542046  -37.642896  -22.753897
 C   15.776475  -36.804981  -23.784414
 C   15.733301  -35.348224  -23.560713
 C   16.056747  -37.331971  -25.127474
 C   17.042000  -36.747844  -25.918406
 C   17.314187  -37.239467  -27.183518
 C   16.581793  -38.329428  -27.673552
 C   15.596221  -38.904583  -26.892239
 C   15.335582  -38.412607  -25.625798
 O   16.893616  -38.772452  -28.937928
 O   18.288372  -36.674628  -27.938797
 O   14.541629  -33.881413  -18.272416
 O   15.920413  -34.515960  -24.429855
 H   14.982889  -32.251449  -20.195634
 H   14.732850  -36.395753  -19.160416
 H   15.513977  -32.895294  -22.550243
 H   15.580023  -38.718938  -22.857769
 H   17.607831  -35.902957  -25.564783
 H   15.027396  -39.739753  -27.279133
 H   14.550192  -38.857949  -25.034844
 H   16.316552  -39.507759  -29.169034
 H   18.314252  -37.137945  -28.787378
 H   14.410348  -34.648051  -17.700580
