20 
3l6h_ligand_dft.xyz
 N   -1.015071    0.063027    0.000006
 C    0.276205    0.833334   -0.000140
 C    1.545505   -0.031848    0.000011
 O    2.679474    0.659177    0.000106
 O    1.535702   -1.231708   -0.000093
 C   -2.138308    1.060638   -0.000098
 C   -1.132947   -0.795044    1.232670
 C   -1.133063   -0.795355   -1.232401
 H    0.271085    1.475976    0.886366
 H    0.271141    1.475433   -0.887079
 H    2.561583    1.620374   -0.000412
 H   -3.084098    0.518082   -0.000024
 H   -2.069200    1.680863    0.894781
 H   -2.069224    1.680671   -0.895115
 H   -2.112324   -1.274104    1.218657
 H   -0.341965   -1.541438    1.218792
 H   -1.046266   -0.155248    2.112484
 H   -0.341843   -1.541502   -1.218559
 H   -2.112305   -1.274675   -1.217912
 H   -1.046846   -0.155733   -2.112384
