20 
3l6h_ligand_xtb.xyz
 N   19.340764   -4.843637   50.121053
 C   20.105101   -3.937129   49.226253
 C   21.130799   -3.017651   49.946509
 O   21.799781   -2.219994   49.143051
 O   21.295055   -3.035985   51.127293
 C   18.415194   -5.645125   49.295000
 C   18.555367   -4.064676   51.101460
 C   20.255028   -5.756818   50.838773
 H   19.396812   -3.297933   48.688919
 H   20.650099   -4.544766   48.496394
 H   21.608254   -2.268382   48.195947
 H   17.842833   -6.319738   49.929052
 H   17.718468   -4.998861   48.763406
 H   18.966939   -6.240620   48.569291
 H   17.973309   -4.739654   51.725253
 H   19.221821   -3.486654   51.739268
 H   17.874002   -3.387981   50.588864
 H   20.930000   -5.186220   51.474261
 H   19.679456   -6.437107   51.462860
 H   20.838618   -6.342067   50.130393
