39 
3lau_ligand_aiqm1.xyz
 C   -5.727021   -8.192213   18.683284
 C   -5.319086   -8.503694   17.369039
 C   -5.420274   -9.384874   19.416131
 C   -6.281419   -6.917058   18.935565
 C   -5.438418   -7.602744   16.302336
 N   -4.833087   -9.769976   17.398502
 N   -4.890298  -10.310811   18.639463
 N   -5.586942   -9.725880   20.759688
 C   -6.392647   -6.028732   17.885077
 C   -5.976747   -6.351667   16.565497
 C   -6.058580   -8.979582   21.809289
 C   -6.119449   -5.354461   15.481528
 C   -6.058360   -9.748573   23.118814
 O   -6.437947   -7.830389   21.710637
 C   -6.501765   -5.740585   14.190493
 C   -5.874133   -3.998320   15.711390
 C   -6.586644   -8.936568   24.289671
 C   -6.641015   -4.814034   13.165653
 C   -6.002255   -3.059526   14.693155
 C   -6.569484   -9.742404   25.580999
 C   -6.387866   -3.468157   13.419881
 O   -6.533459   -2.593937   12.380844
 H   -6.612178   -6.638072   19.923445
 H   -5.104950   -7.869809   15.307378
 H   -5.290453  -10.664536   20.973806
 H   -6.829670   -5.054177   18.060488
 H   -6.658691  -10.655320   22.982409
 H   -5.033868  -10.082911   23.318604
 H   -6.710526   -6.784860   13.990608
 H   -5.561206   -3.670262   16.694143
 H   -5.986223   -8.031966   24.397367
 H   -7.600032   -8.601194   24.063715
 H   -6.944630   -5.115703   12.172210
 H   -5.799674   -2.012790   14.891795
 H   -6.949136   -9.157493   26.417610
 H   -7.187400  -10.638081   25.488898
 H   -5.554535  -10.061734   25.826896
 H   -6.337030   -1.707764   12.691707
 H   -4.446900  -10.310145   16.648984
