39 
3lau_ligand_ani-2x.xyz
 C   -5.681708   -8.182580   18.687307
 C   -5.258242   -8.476904   17.372903
 C   -5.358353   -9.382096   19.423460
 C   -6.255707   -6.919101   18.930268
 C   -5.388669   -7.581118   16.303810
 N   -4.751854   -9.731492   17.406019
 N   -4.805489  -10.286373   18.635800
 N   -5.519246   -9.738409   20.763171
 C   -6.371393   -6.030637   17.883058
 C   -5.950501   -6.342950   16.565742
 C   -6.056036   -9.033423   21.814821
 C   -6.116894   -5.345355   15.477746
 C   -6.046057   -9.792400   23.135353
 O   -6.501620   -7.907277   21.715632
 C   -6.614374   -5.720885   14.224260
 C   -5.784691   -4.002779   15.671310
 C   -6.650196   -8.968379   24.266587
 C   -6.781794   -4.797328   13.205445
 C   -5.929069   -3.066765   14.655779
 C   -6.645276   -9.718969   25.593934
 C   -6.433390   -3.462923   13.417802
 O   -6.608429   -2.598352   12.383028
 H   -6.590571   -6.656303   19.924430
 H   -5.040088   -7.844544   15.309871
 H   -5.176479  -10.670888   20.950519
 H   -6.822850   -5.059261   18.067815
 H   -6.598305  -10.734136   23.004337
 H   -5.009835  -10.074090   23.371761
 H   -6.896663   -6.757550   14.052456
 H   -5.386584   -3.686331   16.632552
 H   -6.092806   -8.029549   24.351987
 H   -7.670527   -8.685271   23.987028
 H   -7.172485   -5.092325   12.236530
 H   -5.658052   -2.027005   14.831296
 H   -7.081888   -9.114569   26.395570
 H   -7.223181  -10.648042   25.522665
 H   -5.623945   -9.983401   25.892581
 H   -6.330583   -1.715633   12.658177
 H   -4.360169  -10.245609   16.634187
