46 
3le8_ligand_ani-2x.xyz
 C   18.321929   11.960603   -1.364642
 N   16.592673   10.176037   -1.154393
 O   17.621691   12.817382   -0.905999
 C   17.966767   10.467815   -1.434200
 C   10.935286    9.483158   -3.788648
 O   16.359263   12.171225    3.441883
 C   12.143356    9.370105    7.882181
 C   12.122879    8.218235    7.080178
 C   14.510056    9.943488   -4.222739
 C   12.901498   10.474855    7.531534
 C   12.857778    8.133646    5.904695
 C   15.682169   10.089506   -3.508193
 C   13.181520    9.766921   -2.186991
 C   14.647173    9.968452   -0.044071
 C   14.539592   11.312441    5.652687
 C   16.830206   10.319617    1.333589
 N   16.064753   10.089017    2.533484
 O   12.195947    9.645153   -4.397414
 O   14.402281    9.386934    4.469092
 C   15.859804   11.056448    3.462986
 C   13.266930    9.780325   -3.567591
 C   15.996499   10.138988    0.099629
 C   14.950216   10.648226    4.553070
 C   13.652618   10.413706    6.348580
 C   14.366256    9.915192   -1.445533
 C   13.611217    9.250861    5.570560
 C   15.596887   10.064455   -2.112884
 O   19.547295   12.252970   -1.851490
 H   18.615105    9.926742   -0.732189
 H   18.205325   10.082085   -2.429905
 H   10.902783    8.576461   -3.170830
 H   10.675912   10.350799   -3.168343
 H   10.214537    9.392160   -4.602727
 H   11.552369    9.392256    8.794261
 H   11.515736    7.370618    7.387656
 H   14.510020    9.949680   -5.308358
 H   12.915427   11.365354    8.154321
 H   12.844157    7.244907    5.282248
 H   16.629671   10.225063   -4.025837
 H   12.233528    9.648694   -1.673537
 H   13.916599    9.913353    0.755828
 H   14.833982   12.315522    5.929594
 H   17.696254    9.640214    1.317746
 H   17.221809   11.341654    1.377545
 H   15.586192    9.206244    2.642911
 H   19.984252   11.452733   -2.172047
