42 
3le9_ligand_aiqm1.xyz
 N    0.056825   -0.001254    1.358176
 N    0.179535    1.398261    1.188962
 C    1.134465   -0.699752    0.895334
 N   -3.485338   -2.977297    1.440375
 C   -3.372039   -1.627498    1.618758
 C   -2.044799   -1.228833    0.940969
 N   -1.527132   -2.522332    0.517635
 C   -2.346136   -3.564812    0.856050
 O   -2.175434   -4.746065    0.699098
 O   -4.142168   -0.903921    2.200732
 C   -2.309083   -0.285123   -0.226768
 C   -1.103163   -0.573686    1.985529
 C    2.023068    0.323337    0.326118
 C    1.386448    1.544506    0.470616
 C    1.969209    2.718662    0.001755
 C    3.205598    2.615522   -0.618541
 C    3.858423    1.377063   -0.768594
 C    3.268718    0.208588   -0.294110
 O    1.253783   -1.920390    0.964143
 O    5.065537    1.435322   -1.394113
 C    5.764726    0.210329   -1.555647
 C   -1.860324   -0.591047   -1.514540
 C   -2.046842    0.315415   -2.558140
 C   -2.686827    1.528198   -2.328906
 C   -3.157244    1.827579   -1.051709
 C   -2.967529    0.928974   -0.004194
 H   -0.628270    1.747083    0.675745
 H   -4.242296   -3.531412    1.798571
 H   -0.525845   -2.669799    0.451016
 H   -0.765390   -1.344896    2.678108
 H   -1.633362    0.197460    2.533458
 H    1.482350    3.677023    0.113917
 H    3.702192    3.496941   -1.002424
 H    3.731155   -0.762711   -0.382268
 H    6.690192    0.465134   -2.062004
 H    5.195547   -0.492677   -2.167453
 H    5.990537   -0.246546   -0.590150
 H   -1.379451   -1.540591   -1.707207
 H   -1.693792    0.067948   -3.550360
 H   -2.830558    2.230801   -3.138204
 H   -3.676873    2.759498   -0.870740
 H   -3.358115    1.156999    0.978405
