57 
3lhs_ligand_dft.xyz
 C    1.748893   -3.076892   -0.583232
 C    3.018484   -2.320071   -0.275168
 C    2.721261   -0.836365    0.087399
 C    2.135725   -0.059808   -1.092740
 C    1.906944    1.392371   -0.715052
 N    0.645926    1.830531   -0.933569
 C    0.213255    3.170311   -0.611850
 C   -0.554799    3.230335    0.726022
 C    0.326679    2.852663    1.928834
 C   -0.365167    1.883339    2.886375
 N   -0.659288    0.610548    2.251742
 C   -1.917244    0.160699    2.070409
 C   -2.043497   -1.206447    1.422288
 C   -2.992768   -1.135160    0.198736
 C   -3.194894   -2.516680   -0.481765
 C   -1.915589   -3.266463   -0.744667
 O    1.192539   -3.789189    0.236543
 O    1.304753   -2.863164   -1.808049
 O    1.819519   -0.774108    1.174276
 C    4.042370   -0.230542    0.576072
 O    4.242678   -0.002116    1.747163
 O    4.955815   -0.101828   -0.382891
 O    2.804640    2.087365   -0.250158
 C   -0.716037    3.651879   -1.707184
 O   -0.547686    4.938333   -2.005465
 O   -1.572140    2.970709   -2.239113
 O   -2.921560    0.804096    2.390621
 C   -2.323679   -0.160778   -0.787473
 O   -4.271663   -0.724468    0.568295
 O   -3.045419    0.901228   -1.083470
 O   -1.186241   -0.343217   -1.191744
 O   -1.468781   -3.887012    0.336547
 O   -1.340643   -3.282250   -1.821528
 H    3.493161   -2.801275    0.583221
 H    3.693094   -2.354755   -1.134783
 H    1.212554   -0.542434   -1.414058
 H    2.840362   -0.089923   -1.928938
 H   -0.058674    1.151661   -1.217796
 H    1.098357    3.808792   -0.569501
 H   -1.410136    2.547956    0.650019
 H   -0.971073    4.236153    0.854401
 H    0.609718    3.752628    2.485550
 H    1.265020    2.403602    1.588727
 H    0.273104    1.707481    3.760012
 H   -1.316897    2.285803    3.240076
 H    0.110377    0.092693    1.835948
 H   -1.066578   -1.599311    1.139059
 H   -2.487221   -1.892295    2.150301
 H   -3.821352   -3.095055    0.201087
 H   -3.731687   -2.370975   -1.421143
 H    0.375256   -3.205677   -1.897596
 H    2.375473   -0.643890    1.964004
 H    5.742137    0.299422    0.020701
 H   -1.221430    5.172683   -2.665975
 H   -4.155910   -0.005501    1.221696
 H   -2.502506    1.515786   -1.629762
 H   -0.517706   -4.130495    0.207314
