57 
3li2_ligand_aiqm1.xyz
 C   -4.365641   -1.949052    0.387483
 C   -4.287420   -0.741950   -0.505090
 C   -2.946305   -0.033847   -0.328917
 C   -2.802188    1.121899   -1.333555
 C   -1.422025    1.723983   -1.202079
 N   -1.320266    2.869449   -0.514850
 C   -0.024947    3.483850   -0.287063
 C    0.787149    2.739052    0.796835
 C    2.300190    2.946727    0.695381
 C    2.876637    2.535721   -0.664159
 N    2.442554    1.212033   -1.074136
 C    3.055962    0.124933   -0.584755
 C    2.355011   -1.193851   -0.862201
 C    2.882967   -2.304262    0.047012
 C    2.242841   -3.671936   -0.286915
 C    0.749178   -3.582640   -0.335973
 O   -3.406157   -2.567083    0.781661
 O   -5.628154   -2.287362    0.680192
 O   -2.879663    0.492152    0.976716
 C   -1.787003   -1.010926   -0.538770
 O   -1.878279   -1.691215   -1.661196
 O   -0.886893   -1.108343    0.267028
 O   -0.439437    1.156125   -1.672579
 C   -0.277345    4.914981    0.122699
 O    0.823768    5.670711   -0.003424
 O   -1.326581    5.329195    0.542889
 O    4.113601    0.174535    0.044185
 C    2.600474   -2.012988    1.540819
 O    4.261575   -2.493687   -0.138234
 O    1.755384   -0.973627    1.724238
 O    3.060174   -2.641615    2.453397
 O    0.177731   -3.662765    0.862754
 O    0.121644   -3.417252   -1.365781
 H   -4.386949   -1.093147   -1.535346
 H   -5.111967   -0.066822   -0.281290
 H   -2.909984    0.730954   -2.343904
 H   -3.576628    1.861072   -1.130354
 H   -2.115115    3.281394   -0.054508
 H    0.530113    3.475759   -1.223031
 H    0.420617    3.040271    1.784481
 H    0.561878    1.681025    0.682760
 H    2.780427    2.343630    1.468296
 H    2.562987    3.990008    0.880664
 H    2.590239    3.247620   -1.441759
 H    3.963654    2.518942   -0.615296
 H    1.506126    1.105506   -1.442829
 H    1.278715   -1.058916   -0.752151
 H    2.559344   -1.483642   -1.896772
 H    2.611432   -3.972621   -1.266834
 H    2.568561   -4.388699    0.467071
 H   -5.581182   -3.080125    1.230027
 H   -2.076345    0.140249    1.376206
 H   -1.126705   -2.327160   -1.694326
 H    0.594872    6.551875    0.320698
 H    4.664008   -1.619634   -0.010491
 H    1.626821   -0.910285    2.678174
 H   -0.746388   -3.389684    0.788801
