61 
3ljz_ligand_xtb.xyz
 C   -0.422283   -1.810886    0.842433
 C    0.697382   -1.599210   -1.668595
 C   -1.260575   -1.709716   -0.265030
 C    0.951846   -1.759471    0.701825
 C    1.533268   -1.634319   -0.553790
 C   -0.676179   -1.621760   -1.527216
 C   -2.720525   -1.669309   -0.105129
 C    3.020906   -1.499475   -0.705255
 C   -5.451504   -1.553862    0.253864
 C   -3.468661   -0.788408   -0.899585
 C   -3.357639   -2.470935    0.835779
 C   -4.734865   -2.431972    1.029611
 C   -4.822647   -0.745718   -0.694597
 O   -5.760755    0.039102   -1.314880
 O   -6.797546   -1.301090    0.246977
 C   -7.000301   -0.312710   -0.739095
 C    3.436785   -0.150274   -1.331620
 C    3.051539    1.007565   -0.413981
 C    4.934294   -0.145889   -1.682176
 C    5.804835   -0.766018   -0.603492
 O    6.294112   -1.884192   -0.668634
 N    6.047974    0.043195    0.433139
 O    6.763369   -0.476384    1.517684
 O    3.857876    1.674910    0.223171
 N    1.737243    1.268339   -0.397857
 C    1.138618    2.305248    0.423705
 C   -0.307998    2.439436    0.048337
 C    1.093239    1.933185    1.944855
 O    2.004437    0.935848    2.308330
 C   -0.341705    1.447354    2.215938
 C   -3.036212    2.396895   -0.316801
 C   -0.833520    2.923321   -1.134055
 C   -1.134805    1.927187    1.043319
 C   -2.504696    1.901637    0.864826
 C   -2.209751    2.903593   -1.306784
 H   -0.854672   -1.903309    1.827755
 H    1.127990   -1.548728   -2.659224
 H    1.580198   -1.794246    1.578925
 H   -1.304625   -1.590042   -2.404584
 H    3.403585   -2.295726   -1.349192
 H    3.496615   -1.605725    0.271023
 H   -2.997290   -0.143842   -1.621790
 H   -2.772356   -3.162277    1.421916
 H   -5.222175   -3.060236    1.755946
 H   -7.672905   -0.703213   -1.519989
 H   -7.459424    0.577380   -0.279620
 H    2.877339   -0.011215   -2.263521
 H    5.087452   -0.733015   -2.588643
 H    5.261715    0.879242   -1.861235
 H    5.504264    0.878489    0.634010
 H    7.032418   -1.361912    1.197138
 H    1.098840    0.617856   -0.832761
 H    1.722647    3.219118    0.269083
 H    1.287922    2.854030    2.516431
 H    2.894713    1.242826    2.088942
 H   -0.726241    1.824788    3.162562
 H   -0.337974    0.357227    2.260376
 H   -4.104427    2.381314   -0.472110
 H   -0.185762    3.314053   -1.905026
 H   -3.150278    1.498724    1.630689
 H   -2.640461    3.284094   -2.220891
