61 
3ljz_ligand_aiqm1.xyz
 C   -0.521348   -2.061839    0.711084
 C    0.681055   -1.675220   -1.760794
 C   -1.330499   -1.815205   -0.402827
 C    0.869170   -2.072873    0.596471
 C    1.492591   -1.846408   -0.633832
 C   -0.708041   -1.649115   -1.644556
 C   -2.795751   -1.674971   -0.258088
 C    2.988533   -1.684021   -0.717603
 C   -5.520531   -1.350073    0.095352
 C   -3.476937   -0.707308   -1.028309
 C   -3.503483   -2.451064    0.663071
 C   -4.887241   -2.303542    0.858222
 C   -4.826967   -0.570586   -0.821962
 O   -5.689844    0.339116   -1.385952
 O   -6.835908   -0.956265    0.125321
 C   -6.983691   -0.154280   -1.044476
 C    3.415313   -0.315586   -1.292373
 C    3.003122    0.882988   -0.428622
 C    4.916264   -0.264761   -1.620070
 C    5.820217   -0.632852   -0.462306
 O    6.073945   -1.783374   -0.124487
 N    6.410842    0.419715    0.150638
 O    7.114154    0.113204    1.315238
 O    3.835816    1.647736    0.064090
 N    1.687517    1.096038   -0.304833
 C    1.147877    2.231653    0.438774
 C   -0.333522    2.342692    0.187880
 C    1.220681    2.057608    1.980257
 O    2.284419    1.265156    2.454847
 C   -0.125354    1.451660    2.393004
 C   -3.107021    2.337116    0.116438
 C   -0.979216    2.762824   -0.968183
 C   -1.060516    1.903639    1.297376
 C   -2.450474    1.897278    1.268791
 C   -2.376370    2.761526   -0.997217
 H   -0.980469   -2.204511    1.681843
 H    1.132489   -1.530100   -2.737708
 H    1.479688   -2.225450    1.479344
 H   -1.313040   -1.486850   -2.529076
 H    3.418454   -2.460885   -1.354075
 H    3.420827   -1.821062    0.273612
 H   -2.948059   -0.061364   -1.716602
 H   -2.976557   -3.197716    1.240958
 H   -5.423796   -2.902271    1.578828
 H   -7.357875   -0.778435   -1.862723
 H   -7.643442    0.681034   -0.831251
 H    2.892060   -0.173940   -2.244242
 H    5.124615   -0.971892   -2.423442
 H    5.171944    0.736975   -1.963758
 H    5.853726    1.260468    0.253121
 H    7.026532   -0.856743    1.351253
 H    1.045775    0.363884   -0.568779
 H    1.707442    3.117579    0.130795
 H    1.297072    3.072000    2.386664
 H    3.084390    1.556015    1.999208
 H   -0.427451    1.778798    3.387320
 H   -0.046964    0.360969    2.411508
 H   -4.190622    2.317374    0.075602
 H   -0.405129    3.078969   -1.831502
 H   -3.019973    1.554931    2.124786
 H   -2.897773    3.082484   -1.890615
