40 
3lle_ligand_aiqm1.xyz
 N   -3.548157   -0.737141  -28.863982
 C   -4.583687    1.374725  -28.170401
 C   -2.407701   -0.421409  -28.066909
 C   -2.277849    0.832102  -27.486641
 C   -1.397568   -1.407212  -27.900576
 C   -3.322057    1.842917  -27.736579
 C   -4.767690   -0.105759  -28.366729
 C   -5.552735    2.320991  -28.398419
 C   -1.524971   -2.698008  -28.513897
 C   -0.253600   -1.101890  -27.112818
 C   -0.513906   -3.582697  -28.325346
 C    0.627142   -3.274741  -27.551143
 C   -1.151160    1.106016  -26.675257
 C    0.783162   -2.072878  -26.936018
 C   -3.092245    3.210251  -27.585692
 C   -5.322454    3.678942  -28.226485
 O   -6.837433    2.132130  -28.862203
 O   -0.410007   -4.880175  -28.759788
 O    1.442463   -4.374051  -27.508142
 O   -6.455368    4.378480  -28.563683
 C   -7.473955    3.379355  -28.591570
 C    0.957794   -5.213725  -28.553226
 C   -0.165038    0.166716  -26.498536
 C   -4.097143    4.161832  -27.833431
 C   -3.294999   -0.442175  -30.277563
 H   -5.021331   -0.571560  -27.409729
 H   -5.575819   -0.317231  -29.065561
 H   -2.407816   -2.943588  -29.081517
 H   -1.064329    2.063443  -26.177392
 H    1.648123   -1.851199  -26.325922
 H   -2.115180    3.566766  -27.292170
 H   -7.951263    3.329534  -27.606465
 H   -8.182809    3.604705  -29.381973
 H    1.521955   -5.006238  -29.468732
 H    1.036296   -6.252399  -28.249160
 H    0.693278    0.394838  -25.878267
 H   -3.911615    5.219941  -27.728519
 H   -4.172456   -0.728671  -30.860345
 H   -3.077369    0.621373  -30.458916
 H   -2.444203   -1.028707  -30.627400
