40 
3lle_ligand_ani-2x.xyz
 N   -3.478405   -0.692677  -28.945165
 C   -4.550357    1.376756  -28.179558
 C   -2.383326   -0.388483  -28.100296
 C   -2.232359    0.876008  -27.537691
 C   -1.381655   -1.391166  -27.925691
 C   -3.312510    1.863854  -27.717923
 C   -4.726694   -0.097939  -28.486135
 C   -5.563668    2.292680  -28.327303
 C   -1.557984   -2.701145  -28.474302
 C   -0.210317   -1.074172  -27.201910
 C   -0.558410   -3.598724  -28.286030
 C    0.616307   -3.274648  -27.573978
 C   -1.045916    1.169180  -26.806039
 C    0.816132   -2.051629  -27.027871
 C   -3.148525    3.239270  -27.465827
 C   -5.394428    3.642478  -28.079317
 O   -6.836965    2.064265  -28.789723
 O   -0.495844   -4.906777  -28.674373
 O    1.420247   -4.380913  -27.516069
 O   -6.554283    4.311127  -28.367259
 C   -7.526958    3.292312  -28.576053
 C    0.835457   -5.326580  -28.401385
 C   -0.073630    0.232577  -26.650081
 C   -4.184917    4.148596  -27.650261
 C   -3.173814   -0.342681  -30.335065
 H   -5.061365   -0.651854  -27.594236
 H   -5.491379   -0.249621  -29.255662
 H   -2.470587   -2.936591  -29.009334
 H   -0.915315    2.148322  -26.351220
 H    1.716449   -1.809060  -26.470514
 H   -2.184828    3.622576  -27.139759
 H   -8.161982    3.204513  -27.682356
 H   -8.120559    3.534050  -29.460167
 H    1.410355   -5.359677  -29.338452
 H    0.813498   -6.306912  -27.920570
 H    0.830263    0.471227  -26.092343
 H   -4.049571    5.209094  -27.462364
 H   -3.994777   -0.667180  -30.983376
 H   -3.019789    0.741088  -30.469419
 H   -2.261292   -0.857941  -30.652025
