42 
3lm1_ligand_aiqm1.xyz
 C   -1.495539    3.809755    2.342869
 C   -1.676892    2.659674    1.382632
 O   -2.152346    2.793031    0.266466
 N   -1.271727    1.449642    1.850401
 C   -1.551124    0.233371    1.128402
 C   -1.386638   -0.969502    2.051762
 O   -2.219960   -0.859633    3.186978
 C   -1.670747   -2.244857    1.269572
 O   -3.061821   -2.230281    0.998581
 C   -0.771060   -2.293749    0.032219
 C   -1.032151   -3.483803   -0.871660
 O   -2.358541   -3.496208   -1.390847
 O   -0.933980   -1.125414   -0.784336
 C   -0.682700    0.088201   -0.124703
 O    0.678456    0.175716    0.271130
 C    1.627419    0.457301   -0.666248
 C    1.397634    0.463973   -2.047530
 C    2.451969    0.757510   -2.906116
 C    3.706224    1.031591   -2.383730
 N    4.806820    1.332584   -3.297622
 O    5.899449    1.572386   -2.805434
 O    4.566367    1.323404   -4.495602
 C    3.947063    1.028855   -1.013881
 C    2.901264    0.742667   -0.156009
 H   -1.296343    4.713378    1.774191
 H   -2.422946    3.954478    2.898327
 H   -0.687704    3.627784    3.052164
 H   -1.025536    1.357456    2.822056
 H   -2.577212    0.263083    0.760453
 H   -0.360871   -1.000407    2.422634
 H   -3.103407   -1.119801    2.906410
 H   -1.426305   -3.112177    1.894557
 H   -3.229540   -2.790239    0.232879
 H    0.267948   -2.356853    0.381927
 H   -0.920958   -4.405348   -0.301985
 H   -0.302969   -3.482918   -1.684841
 H   -2.433123   -2.742657   -1.982885
 H   -0.917933    0.865846   -0.846039
 H    0.424194    0.248216   -2.459584
 H    2.312900    0.774150   -3.977222
 H    4.937150    1.252826   -0.645865
 H    3.045016    0.736871    0.915529
