59 
3lmp_ligand_xtb.xyz
 C   -7.532291    1.034409    0.357677
 C   -7.093937    0.161316   -0.774778
 O   -7.948233   -0.405053   -1.467806
 C   -5.671912   -0.000577   -1.050940
 C   -4.673143    0.719117   -0.308501
 C   -3.264738    0.618031   -0.875955
 C   -2.965099   -0.652002   -1.601942
 C   -3.934422   -1.324423   -2.256106
 C   -5.292625   -0.937468   -2.044322
 O   -1.688332   -1.011369   -1.462947
 C   -1.132646   -0.210881   -0.490481
 C   -2.052885    0.710599    0.007570
 C    0.158212   -0.332180   -0.010730
 C    0.519907    0.551762    1.030719
 C   -0.393680    1.460643    1.541799
 C   -1.699493    1.558223    1.046699
 C   -3.204941    1.783247   -1.908156
 O   -4.872788    1.476147    0.636501
 O   -6.183162   -1.588320   -2.745276
 O   -2.537727    2.441216    1.598519
 O    1.796972    0.438154    1.484519
 C    2.297668    1.401637    2.382705
 C    1.139912   -1.243481   -0.675101
 O    1.229839   -1.324830   -1.884284
 N    1.903566   -1.957845    0.178146
 C    3.092109   -2.671474   -0.249139
 C    4.286326   -2.182161    0.527028
 C    4.743372   -0.842689    0.391780
 C    5.792812   -0.390582    1.238012
 C    6.380388   -1.284231    2.157789
 C    5.945683   -2.575226    2.244455
 C    4.887461   -3.014500    1.436820
 C    6.228026    0.948338    1.143887
 C    5.661742    1.808242    0.246268
 C    4.647989    1.356120   -0.610750
 C    4.202447    0.065157   -0.544800
 H   -7.158810    2.046921    0.221663
 H   -8.618844    1.038272    0.400066
 H   -7.122527    0.666798    1.295674
 H   -3.740970   -2.193144   -2.861740
 H   -0.131276    2.124719    2.347875
 H   -3.980168    1.660258   -2.660769
 H   -3.349908    2.730309   -1.393112
 H   -2.232457    1.791718   -2.395425
 H   -7.104443   -1.276363   -2.433216
 H   -3.461077    2.259352    1.288855
 H    2.194241    2.412794    1.980928
 H    1.800654    1.339884    3.355551
 H    3.354458    1.164829    2.497885
 H    1.831216   -1.767341    1.164838
 H    2.954564   -3.745295   -0.079013
 H    3.196838   -2.503849   -1.324661
 H    7.180605   -0.926707    2.790046
 H    6.399392   -3.262680    2.943004
 H    4.540171   -4.033098    1.539534
 H    7.023203    1.278921    1.797480
 H    5.997821    2.833028    0.182598
 H    4.221076    2.037032   -1.332413
 H    3.434164   -0.259124   -1.226426
