59 
3lmp_ligand_aiqm1.xyz
 C   -7.658563    0.775479    0.447352
 C   -7.113594   -0.066261   -0.664691
 O   -7.926269   -0.716381   -1.348020
 C   -5.690121   -0.127737   -0.970812
 C   -4.698293    0.658729   -0.253094
 C   -3.305839    0.689020   -0.881902
 C   -2.977939   -0.569124   -1.641790
 C   -3.889185   -1.328062   -2.267093
 C   -5.278096   -1.027176   -1.985403
 O   -1.649155   -0.859681   -1.589517
 C   -1.117282   -0.067616   -0.580139
 C   -2.077320    0.780425   -0.027528
 C    0.188739   -0.159272   -0.142943
 C    0.532751    0.722040    0.909015
 C   -0.391971    1.583798    1.482355
 C   -1.712932    1.623137    1.012774
 C   -3.316873    1.886218   -1.885012
 O   -4.920934    1.394039    0.709781
 O   -6.143824   -1.725093   -2.665599
 O   -2.562639    2.488879    1.593583
 O    1.825271    0.654842    1.301791
 C    2.312015    1.642808    2.202943
 C    1.202590   -1.034173   -0.824033
 O    1.396525   -0.968190   -2.027305
 N    1.854166   -1.883633    0.001695
 C    3.074359   -2.570287   -0.417941
 C    4.249445   -2.188487    0.459374
 C    4.805122   -0.868363    0.431635
 C    5.830535   -0.535789    1.358217
 C    6.308565   -1.520678    2.262093
 C    5.785626   -2.785552    2.251132
 C    4.741871   -3.109189    1.349955
 C    6.358447    0.781718    1.372335
 C    5.901893    1.732813    0.496253
 C    4.896073    1.397493   -0.442119
 C    4.366200    0.132742   -0.480360
 H   -7.441477    1.827347    0.269910
 H   -8.732939    0.616510    0.491379
 H   -7.190927    0.522299    1.395654
 H   -3.644639   -2.180978   -2.878056
 H   -0.127544    2.252319    2.288184
 H   -4.124613    1.780156   -2.612136
 H   -3.454966    2.808673   -1.319501
 H   -2.361423    1.930241   -2.407515
 H   -7.051280   -1.467303   -2.293716
 H   -3.473740    2.253363    1.334349
 H    2.094418    2.648286    1.839882
 H    1.886953    1.510152    3.198899
 H    3.388524    1.485608    2.229566
 H    1.725337   -1.741918    0.990666
 H    2.917859   -3.652060   -0.343815
 H    3.237958   -2.332847   -1.465604
 H    7.095352   -1.255191    2.959164
 H    6.153996   -3.539012    2.935302
 H    4.314253   -4.105363    1.368822
 H    7.136533    1.024268    2.087592
 H    6.312945    2.734543    0.513507
 H    4.546649    2.146465   -1.140461
 H    3.593706   -0.098693   -1.200951
