32 
3lp1_ligand_xtb.xyz
 C   -3.715067   74.340941   34.119998
 N   -4.265306   73.480768   33.225606
 O   -5.501129   73.505991   32.993979
 C   -1.503158   73.472666   33.775769
 C   -2.348082   74.364791   34.427111
 O   -4.634743   75.157424   34.666651
 C   -3.440687   72.583689   32.579467
 C   -2.044407   72.564085   32.839026
 C   -1.296536   71.606466   32.114682
 C   -1.925289   70.771766   31.231611
 C   -3.315894   70.891333   31.067003
 N   -4.034782   71.762215   31.715990
 O   -0.173300   73.495680   34.056334
 C   -1.795096   75.341542   35.436098
 C   -1.017046   74.669446   36.595380
 C    0.340276   75.379003   36.658682
 C    0.095279   76.726922   35.986830
 C   -0.812585   76.355215   34.820191
 H   -4.233301   75.771497   35.293417
 H   -0.224741   71.524349   32.250416
 H   -1.371646   70.035689   30.670817
 H   -3.851905   70.251288   30.380662
 H    0.283893   72.816165   33.547920
 H   -2.612731   75.915148   35.884330
 H   -0.897535   73.601279   36.431237
 H   -1.564658   74.801467   37.528839
 H    1.074457   74.817865   36.081434
 H    0.703909   75.478258   37.680109
 H    1.016414   77.207272   35.661579
 H   -0.424868   77.401450   36.669722
 H   -1.331143   77.211336   34.389889
 H   -0.224294   75.876692   34.039722
