32 
3lp1_ligand_ani-2x.xyz
 C   -3.593575   74.231020   34.244517
 N   -4.240234   73.390688   33.379645
 O   -5.475448   73.405211   33.296909
 C   -1.461680   73.367973   33.632888
 C   -2.211250   74.278011   34.373287
 O   -4.476206   74.984868   34.921940
 C   -3.479651   72.515636   32.588083
 C   -2.080677   72.489518   32.699186
 C   -1.413641   71.578135   31.838326
 C   -2.158036   70.797291   30.992567
 C   -3.558893   70.920127   30.997692
 N   -4.214453   71.759841   31.775027
 O   -0.115991   73.356283   33.807986
 C   -1.560948   75.266735   35.323957
 C   -0.833551   74.655241   36.526739
 C   -0.089547   75.852627   37.145491
 C    0.098123   76.871605   35.991270
 C   -0.496603   76.201677   34.740561
 H   -4.020056   75.508716   35.591642
 H   -0.326976   71.502898   31.827737
 H   -1.681014   70.086932   30.323025
 H   -4.160493   70.302867   30.332734
 H    0.252138   72.526144   33.480843
 H   -2.333400   75.931515   35.740359
 H   -0.123705   73.904149   36.173628
 H   -1.524123   74.164961   37.222072
 H    0.863462   75.546887   37.590311
 H   -0.680220   76.302633   37.951151
 H    1.147015   77.150695   35.844524
 H   -0.442654   77.797134   36.219006
 H   -0.914317   76.918842   34.024976
 H    0.260902   75.612840   34.222420
