53 
3lp2_ligand_aiqm1.xyz
 C    9.091639    8.396318   24.899579
 N    9.322378   10.347409   26.891812
 O    7.936912    6.002736   25.592326
 C    9.658758    9.613844   24.620896
 C    9.752145   10.568791   25.665986
 C    8.767067    9.158818   27.170233
 C    8.628707    8.149060   26.206496
 N    8.325848    8.961195   28.474679
 C    7.763503    7.799323   28.816472
 C    7.592706    6.728971   27.873379
 C    8.030470    6.914437   26.570130
 C    6.954357    5.497673   28.364908
 O    6.572113    5.331753   29.509464
 O    7.381348    7.718664   30.085964
 O    8.460757    9.904167   29.358905
 O   10.101142    9.832746   23.347822
 C   10.669190   11.074208   23.094891
 C    9.880414   12.118189   22.635008
 C   10.455019   13.344872   22.324945
 C   11.840423   13.568009   22.475987
 C   12.616017   12.481336   22.931881
 C   12.035699   11.256845   23.242735
 N   12.401867   14.802583   22.224109
 C   11.628160   15.849191   21.578460
 C   11.364711   15.626855   20.088177
 C   13.825839   15.020493   22.404896
 C   14.698451   14.551728   21.241538
 O    6.824187    4.535723   27.432305
 C    4.680609    3.443536   27.853809
 C    6.183670    3.300888   27.868065
 H    9.002565    7.642682   24.130183
 H    7.513791    5.209842   25.951031
 H   10.195368   11.539875   25.475972
 H    6.987917    6.832303   30.214797
 H    8.814441   11.968379   22.521343
 H    9.818913   14.135834   21.962962
 H   13.682015   12.588384   23.048706
 H   12.646151   10.437210   23.599484
 H   12.182365   16.779906   21.713426
 H   10.682616   15.974256   22.114797
 H   12.296473   15.581587   19.524473
 H   10.828184   14.692698   19.918984
 H   10.759449   16.443811   19.690181
 H   14.135768   14.538403   23.335087
 H   13.972076   16.092983   22.556300
 H   14.580268   13.482356   21.062276
 H   14.436902   15.076335   20.321506
 H   15.751316   14.744122   21.459463
 H    4.353907    4.175024   28.588403
 H    4.328667    3.744401   26.866923
 H    4.230159    2.483343   28.103543
 H    6.561940    3.051714   28.857698
 H    6.525143    2.563191   27.146003
