83 
3luo_ligand_ani-2x.xyz
 C   -2.485332   -2.098699   -3.730381
 O   -2.765252   -3.315002   -4.197531
 O   -1.540248   -1.443749   -4.129977
 C   -3.408114   -1.637412   -2.628487
 C   -2.703043   -1.575943   -1.259144
 C   -1.821268   -0.352603   -0.997246
 O   -2.547174    0.850014   -1.163660
 N   -0.605329   -0.365495   -1.847158
 C    0.243996    0.873147   -1.936072
 C    0.587662    1.414649   -0.539818
 O    1.562906    0.996922    0.066302
 C   -0.323840    1.903382   -2.907471
 N   -0.236388    2.384828   -0.044190
 C   -0.251198    2.671107    1.381781
 C   -1.232787    1.685008    2.046439
 O   -2.381488    1.574884    1.611962
 C   -0.676616    4.117027    1.678259
 C    0.398826    5.188666    1.430588
 C    0.778148    5.349374   -0.042395
 C   -0.084515    6.527364    1.993850
 N   -0.821216    0.932644    3.101510
 C    0.466447    0.993801    3.787468
 C    1.608734    0.189779    3.148970
 O    2.767900    0.443042    3.458428
 C    0.142443    0.422143    5.181080
 C   -0.980546   -0.580242    4.906529
 C   -1.802810    0.091865    3.805750
 N    1.273003   -0.824516    2.320552
 C    2.294780   -1.521285    1.570060
 C    1.628392   -2.118655    0.322203
 O    0.445487   -1.914958    0.070382
 C    2.994749   -2.577706    2.436889
 N    2.407434   -2.868411   -0.504806
 C    1.965755   -3.417587   -1.737284
 C    0.660457   -3.897397   -1.881591
 C    0.227371   -4.382181   -3.104159
 C    1.107235   -4.379000   -4.180418
 N    0.607970   -4.787760   -5.490846
 O    1.409834   -5.022994   -6.373187
 O   -0.609779   -4.856360   -5.626578
 C    2.423951   -3.958739   -4.046282
 C    2.853715   -3.485078   -2.816357
 H   -2.065713   -3.570995   -4.836043
 H   -4.260822   -2.317429   -2.577647
 H   -3.762568   -0.632147   -2.873482
 H   -3.478010   -1.568730   -0.483390
 H   -2.109095   -2.485595   -1.073640
 H   -1.491444   -0.425904    0.034626
 H   -2.829680    1.137693   -0.274429
 H   -0.014975   -1.122517   -1.460268
 H   -0.874503   -0.619781   -2.819396
 H    1.209305    0.535924   -2.317554
 H   -0.316141    1.475340   -3.916622
 H   -1.346853    2.184525   -2.659760
 H    0.312790    2.792722   -2.908315
 H   -1.121743    2.507955   -0.520588
 H    0.770518    2.504269    1.728382
 H   -1.578456    4.349888    1.092037
 H   -0.982739    4.175857    2.731569
 H    1.301320    4.891178    1.988129
 H   -0.110620    5.584109   -0.642206
 H    1.237958    4.444753   -0.450460
 H    1.486581    6.176913   -0.164266
 H   -0.318250    6.455682    3.062217
 H   -0.993512    6.855108    1.473286
 H    0.672650    7.309007    1.865740
 H    0.832156    2.022748    3.863688
 H   -0.216835    1.231971    5.824501
 H    1.027116   -0.015860    5.650835
 H   -0.567866   -1.528197    4.546113
 H   -1.577381   -0.796351    5.796356
 H   -2.261875   -0.613088    3.104466
 H   -2.606904    0.720109    4.208952
 H    0.334003   -0.886934    1.947932
 H    3.049165   -0.793499    1.243761
 H    2.286857   -3.353554    2.744464
 H    3.394242   -2.089149    3.328848
 H    3.826743   -3.050640    1.904795
 H    3.396348   -2.930941   -0.314290
 H   -0.020980   -3.882585   -1.039330
 H   -0.780096   -4.756565   -3.229660
 H    3.088877   -4.001903   -4.901365
 H    3.879583   -3.141463   -2.703752
