83 
3luo_ligand_aiqm1.xyz
 C   -2.595526   -2.719236   -3.623887
 O   -2.857114   -3.910967   -4.117726
 O   -1.761442   -1.966911   -4.113724
 C   -3.373153   -2.389746   -2.377623
 C   -2.466986   -2.211018   -1.141982
 C   -1.875665   -0.822481   -0.937281
 O   -2.859353    0.152287   -0.963790
 N   -0.879228   -0.533926   -2.089181
 C   -0.349744    0.868789   -2.239326
 C    0.185957    1.234643   -0.859448
 O    1.069569    0.521788   -0.395615
 C   -1.339097    1.802579   -2.905368
 N   -0.361132    2.265753   -0.210969
 C   -0.142173    2.417338    1.224266
 C   -1.090852    1.460355    1.961270
 O   -2.193688    1.185532    1.475763
 C   -0.411692    3.849439    1.693887
 C    0.748562    4.828586    1.492355
 C    1.169159    4.981467    0.032658
 C    0.353354    6.187833    2.065018
 N   -0.696899    0.970288    3.134917
 C    0.611305    1.178792    3.765977
 C    1.741404    0.336723    3.159327
 O    2.904106    0.659914    3.327487
 C    0.335523    0.779987    5.222905
 C   -0.744774   -0.296086    5.112202
 C   -1.637580    0.215593    3.983463
 N    1.364876   -0.766670    2.473062
 C    2.332985   -1.523355    1.708764
 C    1.630958   -2.063773    0.468223
 O    0.417835   -2.203279    0.405737
 C    2.939492   -2.665542    2.526614
 N    2.459715   -2.389161   -0.563702
 C    2.006031   -2.780916   -1.846996
 C    1.071176   -3.814211   -1.977211
 C    0.557715   -4.131173   -3.231744
 C    0.996749   -3.407964   -4.336315
 N    0.395907   -3.676756   -5.637073
 O    0.885114   -3.156546   -6.615476
 O   -0.597662   -4.403767   -5.652135
 C    1.963449   -2.415618   -4.236230
 C    2.471499   -2.102113   -2.980383
 H   -2.247928   -4.086016   -4.860561
 H   -4.074690   -3.196130   -2.192114
 H   -3.947167   -1.477998   -2.550916
 H   -3.081878   -2.380010   -0.261214
 H   -1.667778   -2.950182   -1.112114
 H   -1.282361   -0.800611   -0.028990
 H   -2.785867    0.658110   -0.138625
 H   -0.066049   -1.131618   -1.925046
 H   -1.293329   -0.881322   -2.984242
 H    0.529627    0.767993   -2.872244
 H   -1.570140    1.434098   -3.902575
 H   -2.266781    1.884090   -2.352472
 H   -0.888444    2.785770   -3.010625
 H   -1.163701    2.729019   -0.605935
 H    0.892515    2.164860    1.418969
 H   -1.307343    4.219680    1.185251
 H   -0.650372    3.814746    2.761400
 H    1.607239    4.448324    2.054465
 H    0.317583    5.278874   -0.587105
 H    1.588656    4.059595   -0.377809
 H    1.926705    5.757618   -0.054195
 H    0.045670    6.111466    3.108218
 H   -0.478409    6.607341    1.495069
 H    1.185197    6.886756    2.007550
 H    0.931875    2.216353    3.698392
 H   -0.053075    1.648786    5.751680
 H    1.236725    0.443492    5.727789
 H   -0.302369   -1.257934    4.848551
 H   -1.299074   -0.419276    6.037205
 H   -2.111036   -0.569002    3.396854
 H   -2.418911    0.886004    4.337290
 H    0.394330   -0.936475    2.264952
 H    3.126922   -0.842417    1.402594
 H    2.157672   -3.348773    2.860721
 H    3.440177   -2.252210    3.397828
 H    3.671613   -3.221775    1.940438
 H    3.413313   -2.081209   -0.478162
 H    0.741808   -4.345028   -1.095399
 H   -0.152572   -4.932820   -3.365696
 H    2.293543   -1.905133   -5.127866
 H    3.228822   -1.333708   -2.883819
