67 
3m11_ligand_aiqm1.xyz
 N    4.105327   31.531513    8.843537
 C    4.718174   30.426185    9.258958
 N    5.219414   29.416896    8.531462
 C    5.094515   29.491561    7.195928
 C    4.460278   30.608345    6.617952
 C    4.014126   31.562023    7.520196
 C    5.538333   30.611883    1.830138
 C    5.246328   31.194167    3.060549
 C    4.469765   30.505839    4.001466
 C    4.001236   29.224992    3.688451
 C    4.297070   28.645214    2.455072
 C    5.066465   29.337885    1.524952
 C    4.149752   31.125742    5.302186
 C    3.534871   32.324539    5.518402
 O    3.453607   32.600947    6.868615
 C    2.979566   33.341935    4.625537
 C    2.439842   32.997108    3.379865
 C    1.941961   33.989769    2.540791
 C    1.969054   35.323678    2.936711
 C    2.491899   35.665811    4.183119
 C    2.992050   34.681724    5.027317
 C    6.426474   27.435041    7.012149
 C    7.847706   27.939773    7.300639
 C    8.717693   26.867228    7.891762
 C    8.789361   26.678292    9.272692
 C    9.562756   25.659415    9.814893
 C   10.289821   24.796803    8.992023
 C   10.235073   24.972737    7.606066
 C    9.453008   25.999733    7.083271
 N   11.045389   23.792259    9.629126
 C   11.820614   22.815608    9.046189
 N   12.413252   21.998961    9.983590
 C   13.269888   20.901671    9.764340
 C   13.743483   20.236824   10.899156
 C   14.592919   19.143390   10.778622
 C   14.982632   18.696988    9.519822
 C   14.509725   19.360678    8.392156
 C   13.657436   20.458558    8.494725
 O   11.964988   22.688324    7.844351
 N    5.566256   28.464315    6.450327
 H    4.835590   30.325918   10.329348
 H    6.133623   31.155157    1.109098
 H    5.604054   32.189047    3.292110
 H    3.403182   28.681957    4.409656
 H    3.922702   27.656310    2.225783
 H    5.294805   28.890138    0.568167
 H    2.406782   31.961267    3.071120
 H    1.528706   33.717916    1.578866
 H    1.580304   36.091832    2.281706
 H    2.507363   36.700448    4.500347
 H    3.390972   34.945687    5.997082
 H    5.964959   27.069979    7.928407
 H    6.458579   26.610427    6.300401
 H    7.777317   28.787289    7.987231
 H    8.287260   28.309289    6.368598
 H    8.231511   27.329336    9.934788
 H    9.600409   25.531642   10.892432
 H   10.790456   24.319011    6.952899
 H    9.414643   26.127968    6.006362
 H   10.989892   23.803760   10.632114
 H   12.228983   22.195365   10.951415
 H   13.443625   20.579654   11.884744
 H   14.945663   18.646106   11.672340
 H   15.643032   17.847323    9.419192
 H   14.807954   19.020285    7.408489
 H   13.299145   20.963131    7.612051
 H    5.593583   28.605605    5.453651
