67 
3m11_ligand_xtb.xyz
 N    4.097280   31.426608    8.871261
 C    4.743873   30.339402    9.244378
 N    5.289388   29.409522    8.481048
 C    5.189200   29.519463    7.152831
 C    4.489285   30.621599    6.615023
 C    3.989467   31.542719    7.552949
 C    5.650497   30.736485    1.921208
 C    5.276857   31.304524    3.124689
 C    4.521113   30.576032    4.040617
 C    4.148862   29.270038    3.727460
 C    4.522827   28.707457    2.519722
 C    5.276470   29.437424    1.615963
 C    4.155247   31.159168    5.332799
 C    3.490296   32.335998    5.587700
 O    3.394447   32.566750    6.935263
 C    2.880800   33.312274    4.703220
 C    2.500728   32.983891    3.400990
 C    1.925440   33.937624    2.584068
 C    1.712468   35.225147    3.050063
 C    2.070764   35.554273    4.347311
 C    2.648585   34.607805    5.170144
 C    6.570899   27.520919    6.923935
 C    8.044976   27.951882    7.012917
 C    8.862504   26.867967    7.650566
 C    8.887092   26.733305    9.033470
 C    9.605867   25.718248    9.630205
 C   10.319039   24.804617    8.855010
 C   10.296008   24.930665    7.470346
 C    9.571265   25.952368    6.885543
 N   11.028151   23.802078    9.523616
 C   11.792228   22.789243    8.986354
 N   12.338096   21.998679    9.973819
 C   13.166584   20.880353    9.836442
 C   13.593515   20.249473   11.004051
 C   14.413060   19.139547   10.940499
 C   14.818390   18.643027    9.713079
 C   14.395242   19.268361    8.552837
 C   13.574558   20.380295    8.603983
 O   11.960559   22.616748    7.801835
 N    5.732622   28.558495    6.381124
 H    4.853538   30.195770   10.310903
 H    6.236869   31.309109    1.218014
 H    5.564968   32.317326    3.364962
 H    3.546656   28.707024    4.426781
 H    4.222767   27.696960    2.283901
 H    5.569089   28.996594    0.674814
 H    2.643325   31.978417    3.036991
 H    1.635061   33.672645    1.577972
 H    1.262842   35.966678    2.406550
 H    1.899147   36.554021    4.718363
 H    2.929847   34.859049    6.181341
 H    6.201063   27.296923    7.925692
 H    6.479669   26.632128    6.294444
 H    8.094973   28.862438    7.612922
 H    8.420124   28.171815    6.010918
 H    8.339406   27.434058    9.646274
 H    9.617596   25.630367   10.708424
 H   10.843816   24.230867    6.863160
 H    9.564710   26.038790    5.808513
 H   10.949895   23.851004   10.529722
 H   12.132391   22.236447   10.934064
 H   13.279730   20.633414   11.965912
 H   14.735546   18.661716   11.853908
 H   15.458946   17.775596    9.663422
 H   14.706475   18.887966    7.591332
 H   13.247770   20.863810    7.699559
 H    5.776428   28.734793    5.388302
