67 
3m11_ligand_ani-2x.xyz
 N    4.203138   31.485007    8.737906
 C    4.848409   30.391029    9.127815
 N    5.384932   29.432517    8.365848
 C    5.285082   29.549941    7.034199
 C    4.554766   30.632295    6.484208
 C    4.097925   31.548960    7.419111
 C    5.382373   30.731897    1.649647
 C    5.037261   31.316523    2.863341
 C    4.474613   30.549107    3.886660
 C    4.228710   29.191818    3.654882
 C    4.568473   28.609483    2.438844
 C    5.152345   29.376146    1.435460
 C    4.167431   31.151208    5.190377
 C    3.515156   32.336893    5.452141
 O    3.499274   32.577895    6.800037
 C    2.830843   33.353110    4.653416
 C    2.324104   33.075301    3.380897
 C    1.682703   34.064366    2.644117
 C    1.532402   35.342713    3.171199
 C    2.016972   35.624155    4.446536
 C    2.651327   34.637538    5.187875
 C    6.704048   27.563075    6.838838
 C    8.126856   28.016531    7.214390
 C    8.930359   26.916043    7.859645
 C    8.751294   26.597287    9.207544
 C    9.462527   25.564263    9.799666
 C   10.370057   24.805397    9.051047
 C   10.556690   25.107407    7.699146
 C    9.838907   26.151925    7.127612
 N   11.069433   23.782297    9.721401
 C   11.810442   22.760218    9.152089
 N   12.361148   21.921686   10.105887
 C   13.174726   20.791727    9.881474
 C   13.863341   20.267856   10.981282
 C   14.669975   19.146298   10.839526
 C   14.795704   18.526983    9.599838
 C   14.105465   19.047192    8.509616
 C   13.296749   20.172034    8.634146
 O   11.959710   22.616403    7.952485
 N    5.881176   28.613100    6.264025
 H    4.964640   30.258008   10.203256
 H    5.828557   31.339586    0.868108
 H    5.195896   32.381802    3.018619
 H    3.762347   28.589017    4.431021
 H    4.376105   27.553179    2.277523
 H    5.421581   28.920314    0.486533
 H    2.424110   32.078264    2.962714
 H    1.299231   33.832656    1.654450
 H    1.033936   36.117133    2.594193
 H    1.894317   36.619298    4.868183
 H    3.012979   34.854281    6.189924
 H    6.186795   27.206208    7.733614
 H    6.747737   26.743916    6.113492
 H    8.034405   28.866582    7.902114
 H    8.642714   28.377974    6.315510
 H    8.040416   27.170193    9.801880
 H    9.308220   25.339629   10.852533
 H   11.254165   24.528251    7.109507
 H    9.998420   26.375196    6.073984
 H   10.893022   23.741132   10.714295
 H   12.294796   22.199675   11.073800
 H   13.770147   20.744854   11.954459
 H   15.200189   18.754969   11.704175
 H   15.423988   17.648480    9.482887
 H   14.195891   18.573772    7.534575
 H   12.767314   20.573564    7.780603
 H    6.018434   28.842642    5.289374
