63 
3m3c_ligand_ani-2x.xyz
 C   -2.847100   -0.436996   -0.629579
 C   -3.651553   -0.987323   -1.806877
 C   -5.133377   -1.038468   -1.466352
 C   -5.359192   -1.836951   -0.189523
 C   -4.477376   -1.269259    0.920324
 C   -4.498599   -2.103452    2.192124
 O   -3.550339   -0.187274   -2.964380
 O   -5.844300   -1.684302   -2.503606
 O   -5.016927   -3.185619   -0.406739
 O   -3.102643   -1.211032    0.522709
 O   -3.648685   -1.535173    3.161499
 O    1.660548    1.504491    0.746678
 C    1.858943    0.384138   -0.088998
 C    0.734518    0.273280   -1.129328
 N    0.984010    1.236902   -2.191585
 C   -0.634221    0.489501   -0.455386
 O   -1.487529   -0.559772   -0.919719
 C   -0.547657    0.445652    1.079631
 O   -0.221747   -0.858218    1.520837
 C    0.497477    1.441327    1.578470
 C    0.967567    1.155077    3.002027
 O    1.984919    2.059912    3.368192
 C    0.213454    1.311631   -3.309280
 O   -0.861240    0.734506   -3.410195
 C    0.782978    2.188590   -4.406162
 C    6.642999    0.236918    1.301528
 C    6.634031    0.518581   -0.060236
 C    5.422289    0.619519   -0.718302
 C    4.231181    0.440524   -0.007836
 C    4.253451    0.158837    1.360169
 C    5.472312    0.054144    2.020001
 O    3.085004    0.559131   -0.739561
 N    7.933011    0.129733    1.992486
 O    7.915668   -0.119352    3.185799
 O    8.945297    0.295867    1.333454
 H   -3.116944    0.621163   -0.444614
 H   -3.302988   -2.014764   -1.993366
 H   -5.502220   -0.008450   -1.327895
 H   -6.416684   -1.742878    0.113185
 H   -4.815747   -0.244328    1.157458
 H   -4.212050   -3.135150    1.945433
 H   -5.511008   -2.118415    2.610991
 H   -2.611081   -0.037516   -3.165517
 H   -5.495547   -1.324416   -3.333379
 H   -5.411650   -3.418439   -1.261030
 H   -2.791087   -1.434925    2.723007
 H    1.893411   -0.538846    0.502904
 H    0.714020   -0.743599   -1.533328
 H    1.932647    1.583701   -2.240856
 H   -1.032244    1.460783   -0.770831
 H   -1.518059    0.752221    1.506897
 H   -0.781054   -1.471560    1.020653
 H    0.063679    2.449448    1.536237
 H    0.141344    1.272811    3.711999
 H    1.315135    0.112428    3.061934
 H    2.529820    2.172674    2.572292
 H    0.114089    2.154891   -5.266532
 H    1.778646    1.846391   -4.709682
 H    0.873446    3.223718   -4.060670
 H    7.573544    0.653521   -0.583995
 H    5.385283    0.837862   -1.781384
 H    3.339577    0.033225    1.934267
 H    5.526646   -0.166821    3.080040
