44 
3m3z_ligand_ani-2x.xyz
 N   -1.099438   -1.894228    4.383188
 C   -0.686887   -0.631936    4.337120
 N   -0.556400    0.158348    3.263057
 C   -1.441401   -2.487123    3.226893
 N   -0.898902    0.047668    0.842239
 C   -1.363172   -1.006479    0.040023
 N   -1.631857   -2.095560    0.705517
 C   -1.352810   -1.764578    2.026709
 C   -0.906408   -0.458431    2.130950
 N   -1.878711   -3.763265    3.246475
 C   -0.690745    1.463620    0.535142
 O   -0.715818    1.689142   -0.861470
 C    0.373392    2.518315   -1.282881
 C    1.020912    3.038225   -0.001629
 C    0.677933    1.956837    1.017403
 C    1.311683    1.718550   -2.169729
 O    1.857735    0.645363   -1.425093
 O    0.629028    2.513255    2.303314
 O    0.383737    4.248173    0.343432
 N   -1.445964   -0.889533   -1.322875
 C   -2.182976   -1.925948   -2.030186
 C    2.896572   -0.039041   -2.078730
 C    2.434133   -1.089657   -3.088410
 O    3.224466   -1.558172   -3.888249
 N    1.131848   -1.452585   -3.000589
 H   -0.414960   -0.186325    5.286895
 H   -2.044212   -4.240793    2.374356
 H   -1.840165   -4.282550    4.108465
 H   -1.485718    2.052662    1.010202
 H   -0.040865    3.357499   -1.851212
 H    2.108751    3.178598   -0.099890
 H    1.390586    1.126655    0.952783
 H    0.759736    1.338258   -3.041861
 H    2.114165    2.377931   -2.537186
 H    0.268688    1.826993    2.902492
 H    0.361288    4.270694    1.312896
 H   -1.568266    0.063577   -1.639286
 H   -3.257776   -1.901093   -1.810812
 H   -1.792736   -2.899801   -1.727613
 H   -2.036536   -1.796744   -3.105973
 H    3.484997   -0.548942   -1.306498
 H    3.577929    0.640631   -2.610141
 H    0.506949   -1.131705   -2.268601
 H    0.818395   -2.186805   -3.617038
