44 
3m3z_ligand_xtb.xyz
 N   -0.720442   -1.907210    4.143512
 C   -0.466149   -0.614381    4.128911
 N   -0.498356    0.214508    3.095475
 C   -1.064896   -2.520928    3.005122
 N   -0.975219    0.146161    0.703660
 C   -1.349927   -0.905814   -0.109027
 N   -1.449167   -2.045541    0.523586
 C   -1.136442   -1.757322    1.830519
 C   -0.837520   -0.394854    1.956863
 N   -1.354367   -3.835410    3.046168
 C   -0.829254    1.563411    0.451637
 O   -0.834347    1.878546   -0.912091
 C    0.381080    2.519199   -1.292679
 C    0.979109    3.085844    0.001612
 C    0.502614    2.076293    1.056169
 C    1.317883    1.544380   -2.013189
 O    1.635412    0.479143   -1.143161
 O    0.341920    2.688637    2.295871
 O    0.469061    4.363999    0.247021
 N   -1.509669   -0.758103   -1.453969
 C   -2.346804   -1.715078   -2.149651
 C    2.681826   -0.343361   -1.607941
 C    2.314940   -1.245703   -2.792358
 O    3.143124   -1.619790   -3.592437
 N    1.015536   -1.583239   -2.840490
 H   -0.194684   -0.173351    5.078362
 H   -1.510753   -4.323975    2.183914
 H   -1.194343   -4.336877    3.901074
 H   -1.675664    2.082761    0.935862
 H    0.113249    3.333342   -1.972628
 H    2.075845    3.118634   -0.048170
 H    1.208984    1.237573    1.104014
 H    0.823840    1.168612   -2.919867
 H    2.229115    2.081005   -2.311730
 H    0.047837    1.981389    2.912116
 H    0.351805    4.436799    1.206516
 H   -1.604025    0.210241   -1.738866
 H   -3.412607   -1.537226   -1.977174
 H   -2.098695   -2.709418   -1.785177
 H   -2.143866   -1.648719   -3.217051
 H    2.948456   -0.989942   -0.766261
 H    3.562610    0.250874   -1.885092
 H    0.354333   -1.275895   -2.138341
 H    0.708821   -2.219514   -3.557038
