18 
3mag_ligand_aiqm1.xyz
 N   16.539699   14.195667   22.196869
 C   17.083539   13.128667   21.632395
 N   16.907376   11.806399   21.950943
 C   16.020652   11.426162   23.042009
 C   17.584268   10.911207   21.212922
 N   18.397857   11.177881   20.216852
 C   18.597395   12.483544   19.871322
 N   19.429849   12.741138   18.852570
 C   17.939058   13.483178   20.578987
 N   17.939536   14.847466   20.468111
 C   17.102691   15.198670   21.441273
 H   16.365114   11.884026   23.964605
 H   15.015665   11.780617   22.832379
 H   16.026019   10.341822   23.134835
 H   17.429923    9.874037   21.482160
 H   19.882669   11.983928   18.375395
 H   19.591802   13.694815   18.583875
 H   16.865489   16.231076   21.641599
