18 
3mag_ligand_ani-2x.xyz
 N   16.541645   14.193727   22.197543
 C   17.078910   13.126730   21.638958
 N   16.906828   11.798981   21.952118
 C   16.017227   11.429234   23.044786
 C   17.593961   10.895874   21.201758
 N   18.399772   11.180492   20.213007
 C   18.594877   12.485394   19.873825
 N   19.429067   12.752767   18.851311
 C   17.938182   13.488966   20.579938
 N   17.944468   14.851626   20.462869
 C   17.111782   15.189495   21.433719
 H   16.354559   11.896156   23.974100
 H   15.001404   11.775066   22.834289
 H   16.016428   10.342628   23.160541
 H   17.438100    9.851087   21.472582
 H   19.882471   11.990770   18.373887
 H   19.594209   13.710116   18.579959
 H   16.874712   16.231191   21.633909
