20 
3mam_ligand_xtb.xyz
 N   19.892577  -18.994235   -9.565750
 C   20.053652  -19.662098  -10.882905
 C   18.803122  -20.439871  -11.380047
 O   18.959304  -21.026328  -12.546723
 O   17.789408  -20.498110  -10.755082
 C   19.598953  -19.988373   -8.512066
 C   18.801763  -17.998160   -9.618644
 C   21.155286  -18.303841   -9.233730
 H   20.887483  -20.368670  -10.816482
 H   20.298893  -18.902112  -11.632120
 H   19.814351  -20.931421  -12.989268
 H   19.519016  -19.489663   -7.548511
 H   18.656951  -20.490888   -8.724589
 H   20.395343  -20.728433   -8.457241
 H   18.719025  -17.492697   -8.658831
 H   19.004319  -17.255331  -10.388116
 H   17.855960  -18.491115   -9.836561
 H   21.391959  -17.554324   -9.987326
 H   21.062492  -17.805341   -8.270586
 H   21.977244  -19.015590   -9.174623
