38 
3max_ligand_xtb.xyz
 N   65.514431   28.705888   -1.839904
 C   65.181106   28.725195   -0.510785
 C   63.997305   28.111055   -0.081260
 C   63.667440   27.996661    1.248319
 C   64.521876   28.490677    2.233675
 C   65.696884   29.105166    1.821389
 C   66.033349   29.247147    0.480694
 N   67.272790   29.875228    0.222536
 C   67.682314   30.665888   -0.798641
 O   66.997933   30.959364   -1.769555
 C   69.070739   31.186020   -0.644466
 C   70.080192   30.466194   -0.010891
 C   71.354078   30.997193    0.083457
 C   71.631237   32.246599   -0.446875
 C   70.634469   32.960978   -1.091215
 C   69.363018   32.429988   -1.196695
 C   64.194010   28.365893    3.659416
 C   65.178193   28.052834    4.595065
 C   64.865619   27.932526    5.936042
 C   63.564344   28.125077    6.368553
 C   62.577225   28.437117    5.448722
 C   62.887892   28.555055    4.107178
 H   64.752182   28.475194   -2.459309
 H   66.078520   29.491655   -2.156264
 H   63.337153   27.703982   -0.834523
 H   62.753675   27.496382    1.531365
 H   66.365238   29.515747    2.566927
 H   67.886624   29.858972    1.026109
 H   69.888243   29.476470    0.379997
 H   72.135420   30.431511    0.569492
 H   72.626503   32.657753   -0.365781
 H   70.850581   33.930308   -1.514967
 H   68.575531   32.966382   -1.704257
 H   66.192290   27.880699    4.263775
 H   65.639872   27.683532    6.647740
 H   63.320804   28.031743    7.416676
 H   61.560386   28.592079    5.779954
 H   62.116037   28.815948    3.397805
