30 
3mb6_ligand_aiqm1.xyz
 C   23.252709    9.909466   12.164507
 C   23.191526   10.656214   13.334990
 C   23.020758    9.996092   14.572635
 C   22.908595    8.630030   14.695974
 C   22.970035    7.872103   13.514865
 C   23.142679    8.509927   12.241726
 C   22.866189    6.442958   13.507730
 C   22.933200    5.745697   12.314624
 C   23.103226    6.359036   11.050229
 C   23.203446    7.718906   11.042766
 C   23.261164   12.059259   13.668862
 C   23.132616   12.125437   15.016480
 O   22.985618   10.896913   15.593777
 C   22.692956    5.442113   14.518563
 C   22.670842    4.247307   13.861162
 O   22.815878    4.414464   12.515784
 C   22.523054    2.840685   14.308997
 C   23.122022   13.270090   15.967837
 O   22.996133   13.146913   17.148142
 O   22.382808    2.677643   15.644579
 O   22.523816    1.907588   13.563602
 O   23.269397   14.485268   15.393293
 H   23.382843   10.383590   11.199679
 H   22.778823    8.166101   15.664009
 H   23.148957    5.765550   10.149127
 H   23.334482    8.237409   10.101628
 H   23.388804   12.880526   12.984922
 H   22.598563    5.594681   15.579463
 H   22.406713    3.531948   16.084128
 H   23.357349   14.387687   14.441323
