30 
3mb6_ligand_xtb.xyz
 C   23.250280    9.902514   12.182781
 C   23.188016   10.633203   13.354397
 C   23.016556    9.971713   14.600836
 C   22.907232    8.603895   14.695059
 C   22.970111    7.864979   13.511136
 C   23.142371    8.510028   12.244366
 C   22.868169    6.445053   13.491940
 C   22.935899    5.739820   12.283537
 C   23.105166    6.378205   11.042179
 C   23.203898    7.734887   11.047093
 C   23.257054   12.019206   13.681858
 C   23.128561   12.098255   15.041239
 O   22.983141   10.869564   15.604146
 C   22.697222    5.455981   14.490862
 C   22.673765    4.247946   13.833433
 O   22.818631    4.424416   12.497373
 C   22.523784    2.861755   14.322172
 C   23.122629   13.259893   15.960813
 O   22.998650   13.164369   17.147169
 O   22.384231    2.739506   15.657463
 O   22.522545    1.901847   13.606257
 O   23.269557   14.458917   15.364942
 H   23.380238   10.394047   11.230752
 H   22.777753    8.123018   15.650003
 H   23.152034    5.796388   10.136681
 H   23.334665    8.267050   10.116892
 H   23.384979   12.818920   12.978479
 H   22.605768    5.630388   15.544991
 H   22.402160    3.585981   16.120827
 H   23.360136   14.399857   14.405725
