30 
3mb7_ligand_xtb.xyz
 C   22.861843    9.427570   11.324068
 C   22.708264   10.562862   12.068859
 C   22.602656   10.406290   13.453005
 C   22.648009    9.152899   14.087222
 C   22.807212    7.979640   13.311958
 C   22.914714    8.135436   11.906253
 C   22.867796    6.662249   13.826802
 C   23.028875    5.574474   12.949677
 C   23.134949    5.728351   11.562569
 C   23.076189    6.999493   11.069241
 C   22.507656    9.433061   15.472104
 C   22.390643   10.790217   15.581935
 O   22.447224   11.393985   14.357021
 C   22.803488    6.081686   15.120460
 C   22.926412    4.725864   14.940732
 O   23.062652    4.420568   13.627479
 C   22.933893    3.599316   15.899856
 C   22.222042   11.620418   16.786976
 O   22.164591   11.156197   17.892901
 O   23.052211    2.453869   15.572152
 O   22.796213    3.947100   17.193580
 O   22.137195   12.938943   16.556407
 H   22.947490    9.501774   10.250607
 H   22.668531   11.543166   11.622889
 H   23.257423    4.866006   10.928570
 H   23.153803    7.164845   10.005362
 H   22.490369    8.759224   16.301334
 H   22.682936    6.603209   16.048235
 H   22.709867    4.898901   17.328915
 H   22.201654   13.141588   15.611331
