66 
3mbp_ligand_dft.xyz
 C   -3.531441    0.869626   -0.621609
 C   -4.251155    1.586898    0.522039
 C   -4.152653    0.730672    1.784985
 C   -4.661149   -0.679130    1.516807
 C   -3.894073   -1.268572    0.335080
 C   -4.377506   -2.646679   -0.075042
 O   -3.750492    2.882467    0.738733
 O   -4.926380    1.272580    2.835183
 O   -4.475918   -1.520250    2.631387
 O   -4.063764   -0.422120   -0.806783
 O   -3.693037   -3.108556   -1.233265
 C    1.664498    0.985342   -1.661490
 C    0.985131    2.338018   -1.437853
 C   -0.253943    2.119436   -0.577274
 C   -1.164454    1.081472   -1.207235
 C   -0.382583   -0.209809   -1.483090
 C   -1.192807   -1.247366   -2.257350
 O    1.838096    3.292739   -0.856319
 O   -0.993508    3.314296   -0.412033
 O   -2.183628    0.825936   -0.260070
 O    0.784514    0.077265   -2.259596
 O   -0.966015   -2.569921   -1.797297
 C    5.435042   -1.399621    1.147352
 C    5.614854    0.055433    0.702097
 C    4.253189    0.728355    0.564787
 C    3.351589   -0.108209   -0.323610
 C    3.213458   -1.515528    0.265900
 C    2.332558   -2.456414   -0.559190
 O    5.035208   -1.333437    2.496513
 O    6.450027    0.779841    1.578355
 O    4.375763    2.017252   -0.006833
 O    2.104025    0.544416   -0.405478
 O    4.525570   -2.089005    0.341138
 O    1.093287   -2.595994    0.092827
 H   -3.668615    1.393146   -1.573801
 H   -5.309324    1.692073    0.257107
 H   -3.095442    0.663255    2.083373
 H   -5.729008   -0.614409    1.246811
 H   -2.827327   -1.329173    0.584509
 H   -4.171658   -3.357458    0.725961
 H   -5.460420   -2.630262   -0.257267
 H   -2.793046    2.883998    0.551450
 H   -4.670433    2.202930    2.904155
 H   -4.791159   -1.024343    3.399356
 H   -3.969251   -2.530917   -1.957320
 H    2.507385    1.086298   -2.353176
 H    0.670755    2.728055   -2.413686
 H    0.066321    1.734539    0.401487
 H   -1.594282    1.484078   -2.136275
 H   -0.083542   -0.635723   -0.519443
 H   -2.256392   -1.008137   -2.171450
 H   -0.905996   -1.178955   -3.313014
 H    2.540261    2.826318   -0.366554
 H   -0.353220    3.990912   -0.148392
 H   -1.811381   -2.909255   -1.448374
 H    6.377654   -1.949306    1.047763
 H    6.105434    0.061699   -0.276465
 H    3.784895    0.799341    1.558381
 H    3.803059   -0.191963   -1.322742
 H    2.775658   -1.450977    1.268727
 H    2.857957   -3.419507   -0.632978
 H    2.203017   -2.062205   -1.576415
 H    4.980623   -2.233688    2.840829
 H    6.176268    0.527676    2.473107
 H    5.076557    2.470920    0.482594
 H    0.403345   -2.742567   -0.581785
