83 
3mg7_ligand_aiqm1.xyz
 C   -1.185384    2.002826    1.568676
 C   -1.931070    1.079167    2.308407
 C   -1.321817    0.168213    3.166816
 C    0.066313    0.176035    3.288068
 C    0.815972    1.085128    2.549141
 C    0.215490    2.006867    1.686564
 C   -1.921906    2.910616    0.602658
 C    1.990503   -1.468874    0.308783
 C   -1.479646    2.176309   -1.695369
 O   -0.620604    3.015456   -1.922642
 C   -1.701203    1.025878   -2.692334
 C   -3.075803    1.042201   -3.366313
 N   -1.362610   -0.257872   -2.073112
 C   -3.184151    0.085427   -4.563920
 C   -2.101064   -0.925854   -1.181144
 O   -3.155621   -0.514391   -0.686028
 C   -1.526241   -2.302029   -0.776809
 N   -0.295984   -2.130150   -0.029036
 C   -2.542998   -3.071338    0.073028
 O   -2.700588   -2.432285    1.333170
 C   -3.121317   -1.385611   -4.221820
 C   -2.007246   -2.160903   -4.556715
 C   -4.182397   -2.006483   -3.555520
 C   -1.943287   -3.516724   -4.234429
 C   -3.012980   -4.124556   -3.580493
 C   -4.132732   -3.363463   -3.244239
 C    0.878853   -1.810263   -0.621285
 O    1.000938   -1.761371   -1.847422
 N   -2.284648    2.174476   -0.612174
 C    2.092938   -2.006789    1.594998
 C    3.093737   -1.586380    2.454285
 C    3.999541   -0.601131    2.045762
 C    3.923759   -0.077037    0.752547
 C    2.927676   -0.526957   -0.105901
 O    4.923181   -0.230191    2.977161
 C    5.744557    0.900623    2.689408
 C    4.976621    2.199778    2.683664
 C    5.157238    3.144241    1.672422
 C    4.439814    4.340556    1.677786
 C    3.530435    4.601772    2.699746
 C    3.344073    3.662517    3.714950
 C    4.065545    2.470451    3.705758
 C   -2.108150   -4.495670    0.341310
 C    1.093980    2.974565    0.931187
 H   -3.012542    1.079386    2.203616
 H   -1.919074   -0.549588    3.715894
 H    0.561383   -0.525426    3.950372
 H    1.897955    1.086016    2.625671
 H   -1.327952    3.767459    0.306989
 H   -2.842282    3.279202    1.065627
 H   -0.948787    1.187120   -3.462422
 H   -3.854144    0.817877   -2.637682
 H   -3.249506    2.058197   -3.727390
 H   -0.482215   -0.694315   -2.324406
 H   -4.129661    0.283490   -5.073837
 H   -2.389568    0.317633   -5.278529
 H   -1.314496   -2.844199   -1.693299
 H   -0.417241   -1.944290    0.956747
 H   -3.485183   -3.071759   -0.474014
 H   -3.129728   -1.588513    1.150838
 H   -1.172570   -1.691774   -5.067848
 H   -5.049560   -1.418658   -3.277613
 H   -1.056655   -4.086357   -4.484416
 H   -2.974464   -5.180277   -3.337010
 H   -4.973050   -3.820839   -2.734829
 H   -2.847472    1.341763   -0.490265
 H    1.386757   -2.760509    1.924284
 H    3.186748   -1.997074    3.451239
 H    4.612357    0.682896    0.414082
 H    2.846984   -0.131133   -1.109249
 H    6.286153    0.756983    1.750382
 H    6.470727    0.899223    3.501306
 H    5.861778    2.947254    0.870019
 H    4.587690    5.054125    0.877747
 H    2.957066    5.520603    2.697246
 H    2.633206    3.852362    4.510253
 H    3.916900    1.733374    4.485086
 H   -1.940331   -5.021099   -0.600339
 H   -2.880415   -5.018484    0.903402
 H   -1.185003   -4.512655    0.921013
 H    2.145245    2.707869    1.054419
 H    0.867449    3.002775   -0.136059
 H    0.981088    3.993464    1.313584
