83 
3mg7_ligand_xtb.xyz
 C   -1.231530    1.922467    1.376982
 C   -1.958877    0.942048    2.041197
 C   -1.341328    0.042652    2.891186
 C    0.024703    0.134887    3.093907
 C    0.754267    1.108747    2.436805
 C    0.150843    2.002152    1.559939
 C   -1.972510    2.812255    0.405476
 C    1.986341   -1.188371    0.369040
 C   -1.502465    2.035308   -1.864840
 O   -0.600312    2.824247   -2.065936
 C   -1.821248    0.902204   -2.861466
 C   -3.262636    0.958847   -3.375182
 N   -1.484437   -0.376669   -2.248684
 C   -3.481647    0.041544   -4.586632
 C   -2.136554   -0.990299   -1.264076
 O   -3.171793   -0.596989   -0.730747
 C   -1.428787   -2.271434   -0.793372
 N   -0.267617   -1.902615   -0.009551
 C   -2.369299   -3.128476    0.075828
 O   -2.668226   -2.449294    1.271118
 C   -3.349731   -1.410713   -4.222409
 C   -2.226752   -2.143256   -4.583912
 C   -4.350400   -2.039864   -3.491508
 C   -2.100814   -3.471703   -4.216446
 C   -3.101215   -4.087363   -3.484014
 C   -4.228358   -3.367478   -3.124432
 C    0.888688   -1.496464   -0.573534
 O    1.012562   -1.393370   -1.789608
 N   -2.300614    2.049739   -0.786354
 C    2.174852   -1.890550    1.557992
 C    3.216159   -1.564899    2.396905
 C    4.084395   -0.515364    2.081638
 C    3.907752    0.175756    0.885696
 C    2.875193   -0.172880    0.037513
 O    5.055006   -0.262609    2.996067
 C    5.878580    0.874061    2.818714
 C    5.113622    2.175196    2.871210
 C    5.466786    3.243637    2.057939
 C    4.752070    4.427344    2.111199
 C    3.673392    4.549989    2.970674
 C    3.317736    3.489030    3.785698
 C    4.038430    2.309024    3.740171
 C   -1.737437   -4.471450    0.418324
 C    0.988083    3.020622    0.848715
 H   -3.027560    0.885325    1.887577
 H   -1.921119   -0.721266    3.386430
 H    0.524729   -0.550214    3.762746
 H    1.819499    1.176157    2.598828
 H   -1.372387    3.667083    0.096977
 H   -2.906669    3.164902    0.852153
 H   -1.134511    1.029676   -3.703947
 H   -3.949589    0.673202   -2.579490
 H   -3.476066    1.990451   -3.662355
 H   -0.561834   -0.759270   -2.469471
 H   -4.485979    0.225775   -4.975649
 H   -2.763125    0.296311   -5.368146
 H   -1.096435   -2.836081   -1.671471
 H   -0.426089   -1.815035    0.985570
 H   -3.289439   -3.296244   -0.505102
 H   -3.118343   -1.629410    1.011689
 H   -1.441615   -1.670803   -5.156670
 H   -5.233102   -1.484519   -3.208864
 H   -1.220160   -4.027030   -4.504924
 H   -3.006678   -5.125005   -3.198779
 H   -5.017918   -3.844675   -2.561945
 H   -2.926219    1.260887   -0.650686
 H    1.520318   -2.709439    1.817458
 H    3.382151   -2.104853    3.316037
 H    4.561025    0.987315    0.609468
 H    2.735174    0.356564   -0.892387
 H    6.449817    0.797626    1.883993
 H    6.584970    0.824443    3.655104
 H    6.304049    3.148272    1.380423
 H    5.033075    5.252225    1.473597
 H    3.110488    5.470625    3.003553
 H    2.475168    3.576905    4.455208
 H    3.766491    1.479453    4.377008
 H   -1.566293   -5.044265   -0.488146
 H   -2.403952   -5.024446    1.073674
 H   -0.791759   -4.322908    0.932090
 H    2.043947    2.826717    1.020440
 H    0.797031    3.001931   -0.222973
 H    0.763338    4.022877    1.213949
