63 
3mj1_ligand_aiqm1.xyz
 N   15.278223    5.949569   -2.862123
 N   16.508364    6.495069   -2.589533
 C   14.320271    6.746697   -3.202487
 C   16.866444    7.803559   -2.792228
 C   15.762634    8.703454   -3.162377
 C   14.476565    8.186151   -3.340575
 C   12.838224    4.808738   -3.445107
 N   13.045601    6.203496   -3.412773
 N   11.822224    4.271279   -2.729213
 C   13.458353    3.762569   -4.097361
 N   11.738759    2.936186   -2.866783
 C   12.734008    2.615562   -3.692968
 N   16.153447   12.947833   -2.808432
 N   15.082501   15.279312   -1.454357
 C   13.423145    9.062724   -3.627011
 C   17.568337    5.522122   -2.241302
 C   16.010034   10.070442   -3.309366
 O   18.022883    8.188787   -2.652946
 C   14.972505   10.941046   -3.619530
 C   15.220587   12.422843   -3.794163
 O   18.686738    2.882459   -2.225402
 C   15.640734   12.896449   -1.438133
 C   16.586566   14.308666   -3.115996
 C   15.518471   15.363065   -2.838934
 C   14.571961   13.948450   -1.159343
 C   13.675043   10.420033   -3.758571
 C   17.077221    4.445503   -1.287776
 C   18.148991    4.881148   -3.497111
 C   14.080061   16.287272   -1.169154
 C   18.211010    3.461639   -1.021900
 C   19.214543    3.872286   -3.093005
 C   12.949538    1.190209   -4.076919
 H   12.556966    6.685507   -4.154759
 H   14.331898    3.820181   -4.727098
 H   12.405949    8.703098   -3.714810
 H   18.343725    6.116512   -1.758080
 H   17.012575   10.440518   -3.151724
 H   14.250538   12.945400   -3.789949
 H   15.663985   12.595032   -4.779743
 H   15.247287   11.896173   -1.250652
 H   16.486387   13.055048   -0.766203
 H   17.461114   14.522459   -2.498056
 H   16.901351   14.349809   -4.161119
 H   14.668081   15.240993   -3.536407
 H   15.935233   16.358077   -3.009605
 H   14.293324   13.916073   -0.104066
 H   13.657755   13.733485   -1.743625
 H   12.852199   11.095287   -3.963359
 H   16.735808    4.888693   -0.347739
 H   16.236992    3.915790   -1.742191
 H   17.345795    4.370844   -4.040683
 H   18.580504    5.645660   -4.148468
 H   13.794840   16.233872   -0.118126
 H   14.490622   17.278911   -1.361814
 H   13.173823   16.158016   -1.784600
 H   17.872629    2.635937   -0.398730
 H   19.038624    3.969794   -0.506467
 H   20.047905    4.389521   -2.598779
 H   19.605055    3.341147   -3.959704
 H   12.197863    0.568684   -3.593994
 H   12.875796    1.053577   -5.157684
 H   13.938045    0.843527   -3.772993
 H   11.188344    4.759756   -2.124895
