63 
3mj1_ligand_xtb.xyz
 N   15.395680    5.994622   -3.142160
 N   16.586253    6.549003   -2.872133
 C   14.382280    6.731148   -3.467990
 C   16.868743    7.889483   -2.905165
 C   15.728505    8.740585   -3.273367
 C   14.473316    8.175415   -3.558815
 C   12.937413    4.757844   -3.697048
 N   13.187762    6.111308   -3.734615
 N   11.698553    4.287395   -3.993507
 C   13.709994    3.654927   -3.403331
 N   11.635041    2.949308   -3.906271
 C   12.842220    2.553691   -3.550933
 N   15.992013   12.890180   -2.722154
 N   15.130413   15.248488   -1.284262
 C   13.424548    9.034893   -3.902340
 C   17.629355    5.595219   -2.521620
 C   15.913837   10.118779   -3.338240
 O   17.983492    8.315767   -2.646558
 C   14.870145   10.957537   -3.678567
 C   15.084152   12.445004   -3.761651
 O   18.500381    2.885617   -2.076884
 C   15.433530   12.827888   -1.384740
 C   16.575435   14.197903   -2.937845
 C   15.605392   15.349530   -2.652125
 C   14.464339   13.975560   -1.077592
 C   13.623435   10.396411   -3.957100
 C   17.247164    4.810222   -1.265614
 C   17.880640    4.618880   -3.672039
 C   14.289041   16.364716   -0.918611
 C   18.318976    3.755777   -0.985356
 C   18.910482    3.577103   -3.232398
 C   13.170778    1.118168   -3.350991
 H   12.413638    6.702447   -3.991027
 H   14.739559    3.642229   -3.125452
 H   12.439720    8.649845   -4.127103
 H   18.526030    6.195646   -2.333306
 H   16.887345   10.522163   -3.108046
 H   14.105147   12.953204   -3.746398
 H   15.553513   12.669867   -4.726335
 H   14.930959   11.867482   -1.253488
 H   16.270064   12.883501   -0.683076
 H   17.424495   14.286023   -2.254096
 H   16.945033   14.262903   -3.963403
 H   14.768273   15.328468   -3.376555
 H   16.127411   16.302214   -2.768266
 H   14.151688   13.913226   -0.032609
 H   13.557824   13.886717   -1.707379
 H   12.797240   11.041777   -4.221761
 H   17.156178    5.481601   -0.410920
 H   16.286306    4.321610   -1.432969
 H   16.942639    4.123433   -3.926358
 H   18.245878    5.152477   -4.550344
 H   14.003934   16.267320    0.128079
 H   14.851085   17.289281   -1.043121
 H   13.371592   16.427359   -1.527615
 H   18.028699    3.122537   -0.144546
 H   19.270547    4.256311   -0.744230
 H   19.876968    4.073101   -3.047844
 H   19.044479    2.815700   -4.003447
 H   12.287657    0.514586   -3.538223
 H   13.965326    0.814169   -4.030548
 H   13.514408    0.947482   -2.332045
 H   10.878060    4.808953   -4.254547
