11 
3mjl_ligand_xtb.xyz
 C    1.058378  -28.391560  -40.536610
 C    0.650704  -27.770490  -39.399911
 N   -0.713518  -27.728051  -39.341193
 C   -1.130824  -28.322180  -40.426884
 N   -0.096313  -28.746008  -41.202113
 N   -2.446814  -28.582020  -40.743484
 H    2.029211  -28.606956  -40.930872
 H    1.240462  -27.343429  -38.614606
 H   -0.154657  -29.250994  -42.069805
 H   -3.079464  -28.067856  -40.148717
 H   -2.676166  -28.501458  -41.723806
