40 
3mks_ligand_xtb.xyz
 C  171.361257   34.373777  -52.086765
 C  170.783269   35.158539  -53.044118
 C  171.383851   35.317068  -54.310609
 C  172.601687   34.639969  -54.582463
 C  173.181755   33.850125  -53.566632
 C  172.573809   33.718591  -52.349831
 C  170.810765   36.136260  -55.305852
 C  171.406462   36.270598  -56.526403
 C  172.593546   35.574210  -56.815305
 C  173.192296   34.776979  -55.865287
 C  174.473975   34.090218  -56.153872
 C  175.693218   34.800074  -56.015667
 C  176.919981   34.120398  -56.242141
 C  176.900110   32.749538  -56.576889
 C  175.719631   32.076936  -56.692917
 C  174.494555   32.749440  -56.492953
 C  175.724487   36.168391  -55.670671
 C  176.914546   36.832829  -55.571930
 C  178.126032   36.163357  -55.802788
 C  178.129100   34.835656  -56.127389
 C  173.217754   32.027237  -56.717101
 O  173.137930   30.784549  -56.231305
 O  172.290347   32.508210  -57.326474
 C  173.201564   35.702566  -58.182650
 O  173.196080   34.579374  -58.900384
 O  173.652150   36.732714  -58.604351
 H  170.893624   34.255700  -51.120593
 H  169.853739   35.672680  -52.846781
 H  174.121924   33.353045  -53.760757
 H  173.025532   33.109618  -51.580535
 H  169.890601   36.656321  -55.083914
 H  170.978660   36.898946  -57.292537
 H  177.837761   32.241552  -56.747340
 H  175.713499   31.035052  -56.984297
 H  174.793539   36.686188  -55.498274
 H  176.928578   37.881686  -55.317498
 H  179.056032   36.706230  -55.722385
 H  179.057811   34.313230  -56.306138
 H  173.939689   30.522428  -55.757380
 H  172.759852   33.835322  -58.422924
