40 
3mks_ligand_dft.xyz
 C   -3.682852   -2.220716   -1.469624
 C   -3.935529   -1.602581   -0.273452
 C   -2.941954   -0.816306    0.364854
 C   -1.671680   -0.661727   -0.256870
 C   -1.436458   -1.328131   -1.490295
 C   -2.415663   -2.084568   -2.080370
 C   -3.179697   -0.197705    1.618875
 C   -2.206822    0.546123    2.223619
 C   -0.955765    0.746432    1.590400
 C   -0.678531    0.149922    0.378889
 C    0.670295    0.250194   -0.262961
 C    1.681947   -0.691828    0.099259
 C    2.933558   -0.670866   -0.579762
 C    3.149936    0.277888   -1.610363
 C    2.171651    1.168874   -1.952211
 C    0.927935    1.161059   -1.269331
 C    1.477982   -1.655439    1.123790
 C    2.468339   -2.541818    1.455564
 C    3.710760   -2.518352    0.780995
 C    3.937251   -1.603991   -0.213249
 C   -0.081717    2.204644   -1.623271
 O   -0.338747    2.366811   -2.928369
 O   -0.631412    2.917826   -0.812553
 C    0.056169    1.579988    2.336142
 O    0.565500    2.622534    1.681593
 O    0.365866    1.324806    3.474152
 H   -4.450742   -2.820378   -1.948527
 H   -4.903910   -1.707822    0.208464
 H   -0.463665   -1.240769   -1.963501
 H   -2.216990   -2.586786   -3.022376
 H   -4.145443   -0.333822    2.097790
 H   -2.373299    1.001862    3.193938
 H    4.109422    0.294395   -2.119461
 H    2.357313    1.914917   -2.720473
 H    0.532260   -1.671579    1.653905
 H    2.301103   -3.265417    2.246992
 H    4.485832   -3.226558    1.057183
 H    4.890344   -1.577604   -0.734438
 H    0.086803    1.660135   -3.433956
 H    0.106374    2.757029    0.822120
