56 
3mvl_ligand_ani-2x.xyz
 N   -0.214319   -2.005887   36.945255
 N    0.424961   -0.835479   36.848659
 C    0.062625   -0.130143   35.806585
 N   -0.860331   -0.429866   34.845677
 C   -1.501071   -1.567679   34.993862
 C   -1.179750   -2.471091   36.054380
 C   -1.566671   -3.753024   36.477774
 C   -0.836459   -4.012229   37.668877
 C   -0.021669   -2.921108   37.919999
 C   -0.917787   -5.262553   38.467683
 O   -1.260087   -6.343052   37.995185
 N   -0.603686   -5.131451   39.788063
 C   -0.684088   -6.242872   40.714961
 C   -1.972938   -6.279117   41.543714
 C   -3.239338   -6.340420   40.692773
 C   -2.533209   -4.690724   35.817593
 N   -2.520373   -1.931329   34.165816
 C   -3.062466   -1.268084   33.039482
 C   -4.442538   -1.391095   32.778114
 C   -4.953779   -0.756614   31.649352
 C   -4.146331   -0.022375   30.788480
 C   -2.783708    0.086823   31.054814
 C   -2.248529   -0.552228   32.168505
 C   -1.822458    0.841581   30.187713
 O   -0.621794    0.624040   30.222056
 N   -2.356549    1.804998   29.380925
 C   -1.576086    2.459878   28.373962
 C   -0.385325    3.271818   28.796814
 C   -1.624838    3.960164   28.312435
 C   -5.361254   -2.176396   33.677440
 H    0.581152    0.817525   35.710562
 H    0.728445   -2.725523   38.675224
 H   -0.405368   -4.211470   40.146870
 H    0.187252   -6.208873   41.378138
 H   -0.612063   -7.151045   40.110575
 H   -2.011664   -5.407429   42.211368
 H   -1.921587   -7.160331   42.197604
 H   -3.396709   -5.405197   40.144805
 H   -3.184031   -7.148216   39.954198
 H   -4.119465   -6.511218   41.321355
 H   -3.574183   -4.390464   35.995239
 H   -2.367319   -4.725747   34.733038
 H   -2.408897   -5.698336   36.218045
 H   -3.052232   -2.720565   34.493786
 H   -6.019477   -0.834566   31.439066
 H   -4.591055    0.427352   29.902959
 H   -1.182310   -0.486396   32.351264
 H   -3.352046    1.959744   29.373197
 H   -1.483727    1.922558   27.431271
 H    0.496417    3.253346   28.162807
 H   -0.183735    3.292039   29.862603
 H   -2.228803    4.475363   29.054482
 H   -1.616222    4.430265   27.333076
 H   -5.165035   -3.255357   33.628709
 H   -5.276125   -1.867167   34.726888
 H   -6.402970   -2.029479   33.375624
