56 
3mvl_ligand_dft.xyz
 N   -2.076880   -1.905885   -0.300219
 N   -1.314708   -3.034772   -0.230992
 C   -0.040530   -2.780202   -0.180701
 N    0.595900   -1.579635   -0.188099
 C   -0.156053   -0.502927   -0.265410
 C   -1.586060   -0.605832   -0.335133
 C   -2.671272    0.262102   -0.433376
 C   -3.825435   -0.558789   -0.441878
 C   -3.420925   -1.888659   -0.362516
 C   -5.231817   -0.086392   -0.532255
 O   -5.542863    0.974018   -1.061858
 N   -6.155029   -0.934860    0.011234
 C   -7.566674   -0.603365    0.073037
 C   -8.006232   -0.067103    1.438600
 C   -7.273600    1.207334    1.852833
 C   -2.637432    1.762063   -0.497276
 N    0.385232    0.745537   -0.277963
 C    1.726539    1.173279   -0.227265
 C    1.940362    2.561751   -0.091286
 C    3.250365    3.028154   -0.058513
 C    4.336070    2.163681   -0.137349
 C    4.113156    0.794471   -0.260377
 C    2.810740    0.302155   -0.322409
 C    5.224793   -0.214853   -0.367775
 O    5.085414   -1.268303   -0.966314
 N    6.387850    0.123567    0.266010
 C    7.548322   -0.710365    0.224845
 C    7.518449   -2.032318    0.934187
 C    8.325105   -0.894997    1.499428
 C    0.787535    3.528889    0.009256
 H    0.599449   -3.654901   -0.124846
 H   -3.972428   -2.816052   -0.395056
 H   -5.819553   -1.678281    0.604949
 H   -8.146742   -1.496398   -0.186445
 H   -7.739621    0.147699   -0.701085
 H   -7.859041   -0.845710    2.199893
 H   -9.086729    0.118264    1.393606
 H   -6.200255    1.024133    1.967883
 H   -7.392289    1.990719    1.097954
 H   -7.653914    1.583723    2.807790
 H   -2.200602    2.201508    0.409157
 H   -2.065290    2.114809   -1.364982
 H   -3.651385    2.147293   -0.608360
 H   -0.292494    1.489250   -0.321835
 H    3.422678    4.097748    0.026151
 H    5.342388    2.572613   -0.143167
 H    2.651537   -0.759750   -0.441725
 H    6.427424    0.974643    0.803885
 H    8.110403   -0.663467   -0.705183
 H    8.038459   -2.862322    0.468099
 H    6.592367   -2.296562    1.432272
 H    7.946047   -0.406072    2.392727
 H    9.407567   -0.933245    1.431553
 H    0.159574    3.520533   -0.891862
 H    0.141190    3.306720    0.868293
 H    1.151864    4.551258    0.133910
