16 
3mwe_ligand_ani-2x.xyz
 O    2.302551   -0.492084   -1.150785
 O    2.325213    1.549975   -0.216123
 C    1.716376    0.590685   -0.625746
 C    0.201222    0.473303   -0.583386
 O   -0.343607    1.719183   -0.251149
 C   -0.192887   -0.592182    0.465716
 O    0.238309   -0.212155    1.742075
 C   -1.705897   -0.740225    0.477739
 O   -2.407876   -0.366672    1.386802
 O   -2.176306   -1.314059   -0.636302
 H    3.261626   -0.340442   -1.107970
 H   -0.169826    0.157906   -1.565019
 H    0.322415    2.151910    0.306531
 H    0.266984   -1.547787    0.189867
 H   -0.493868    0.300608    2.120015
 H   -3.144328   -1.337664   -0.552465
