16 
3mwe_ligand_aiqm1.xyz
 O    2.316152   -0.524372   -0.968842
 O    2.284192    1.649182   -0.392994
 C    1.708500    0.618434   -0.624337
 C    0.202028    0.476028   -0.574534
 O   -0.390858    1.715074   -0.298060
 C   -0.194500   -0.583384    0.468245
 O    0.288886   -0.255674    1.741874
 C   -1.700113   -0.738063    0.505936
 O   -2.361719   -0.539379    1.490917
 O   -2.200258   -1.133750   -0.671864
 H    3.267047   -0.357615   -0.950499
 H   -0.137835    0.125456   -1.554791
 H    0.313603    2.322076   -0.049359
 H    0.236714   -1.540109    0.155113
 H   -0.472236   -0.052550    2.295048
 H   -3.159500   -1.181052   -0.572052
