85 
3n23_ligand_xtb.xyz
 C    1.154808    0.893502    1.140107
 C    2.595107    1.166524    0.698247
 C    2.982602    0.342093   -0.514260
 C    2.002577    0.657717   -1.637627
 C    0.529994    0.399718   -1.272833
 C    0.288932   -1.105534   -1.117632
 C   -1.208265   -1.411397   -1.097962
 C   -2.049297   -0.240837   -0.554833
 C   -1.297975    0.520966    0.551920
 C    0.069919    1.125663    0.032140
 C   -2.243956    1.574830    1.159127
 C   -3.589127    0.978434    1.574850
 C   -4.366721    0.298592    0.448608
 C   -3.457889   -0.773567   -0.187923
 C   -3.485028   -1.918095    0.841743
 C   -4.871992   -1.865863    1.501528
 C   -5.514403   -0.513714    1.127334
 C   -4.874006    1.331241   -0.552166
 C   -0.011600    2.649471   -0.232164
 C   -6.750369   -0.629518    0.301212
 C   -6.972467   -1.607544   -0.813478
 C   -7.849547    0.125796    0.398728
 C   -8.820603   -0.301949   -0.619513
 C    5.030180   -0.341194   -1.511276
 C    6.328384    0.276070   -2.050286
 C    7.292009    0.565430   -0.895082
 C    7.455815   -0.693110   -0.035911
 C    6.069577   -1.124013    0.470182
 C    6.121495   -2.377987    1.333808
 O    0.977099    1.685832    2.278867
 O    4.312461    0.691566   -0.898079
 O   -0.242113    0.891759   -2.371139
 O   -1.653326    2.113568    2.340733
 O   -4.085329   -1.199010   -1.390581
 O   -1.071330    3.064989   -1.054538
 O   -8.262402   -1.328134   -1.312514
 O   -9.917355    0.124100   -0.853474
 O    6.901410   -0.610226   -2.971649
 O    8.523559    0.959158   -1.454496
 O    8.356346   -0.367030    1.000711
 O    5.243124   -1.419136   -0.648587
 H    1.095656   -0.172404    1.432845
 H    3.244122    0.937784    1.543613
 H    2.716612    2.225070    0.473948
 H    2.961883   -0.727948   -0.270839
 H    2.246142    0.057757   -2.520028
 H    2.132609    1.706237   -1.911981
 H    0.756509   -1.444110   -0.195848
 H    0.764000   -1.644546   -1.940922
 H   -1.366039   -2.303698   -0.491859
 H   -1.536427   -1.631320   -2.116018
 H   -2.218788    0.465884   -1.371119
 H   -1.055469   -0.185880    1.354241
 H   -2.404153    2.371099    0.428662
 H   -3.399821    0.270316    2.383160
 H   -4.201436    1.786848    1.984306
 H   -3.328723   -2.883234    0.359514
 H   -2.696242   -1.777082    1.578438
 H   -4.786371   -1.957102    2.583701
 H   -5.489553   -2.692358    1.156981
 H   -5.811713    0.025063    2.031427
 H   -5.607014    1.979919   -0.079033
 H   -5.337516    0.842193   -1.402460
 H   -4.053619    1.941560   -0.917975
 H    0.941274    2.971830   -0.668753
 H   -0.129764    3.177219    0.715536
 H   -6.950159   -2.649799   -0.477795
 H   -6.230283   -1.485400   -1.608065
 H   -8.055239    0.925646    1.082772
 H    4.477834   -0.780490   -2.355750
 H    6.068719    1.226691   -2.540399
 H    6.876002    1.367489   -0.269094
 H    7.864713   -1.498721   -0.666409
 H    5.631889   -0.289890    1.039937
 H    6.630952   -3.176823    0.800451
 H    5.108098   -2.702872    1.550370
 H    6.629595   -2.174906    2.273067
 H    0.027445    1.755568    2.480035
 H    0.070530    0.459283   -3.173372
 H   -2.109616    2.927080    2.575790
 H   -3.578787   -1.933079   -1.752614
 H   -1.001910    2.555388   -1.874176
 H    7.814406   -0.312657   -3.096677
 H    9.162811    0.982203   -0.731882
 H    8.486244   -1.143072    1.555431
