30 
3n35_ligand_aiqm1.xyz
 O   -1.272592    1.235423   -0.478007
 C    0.130521    1.103522   -0.613688
 O    0.475000    0.832684   -1.952822
 C    0.642892   -0.037018    0.272160
 N    2.069292   -0.232801    0.149080
 C   -0.077844   -1.338360   -0.064315
 O    0.360613   -2.399199    0.762665
 C   -1.582519   -1.130491    0.045455
 O   -1.857601   -0.979437    1.429353
 C   -1.997708    0.055611   -0.826351
 C   -3.463473    0.422769   -0.713543
 O   -3.812793    0.850132    0.599610
 C    2.962478    0.675277    0.609861
 O    2.621232    1.767273    1.037883
 C    4.404917    0.228669    0.561055
 H    0.535261    2.053350   -0.289140
 H    0.349569    1.637893   -2.458964
 H    0.406932    0.256005    1.297507
 H    2.383713   -1.162525   -0.074965
 H    0.166899   -1.622314   -1.088832
 H   -0.095882   -2.296889    1.604099
 H   -2.096416   -2.023487   -0.332298
 H   -2.666138   -0.464580    1.524733
 H   -1.792126   -0.214133   -1.870763
 H   -3.688062    1.206933   -1.441274
 H   -4.085896   -0.445363   -0.928022
 H   -3.304510    1.648822    0.768927
 H    4.582883   -0.490708   -0.238735
 H    4.662711   -0.237795    1.512841
 H    5.038444    1.100637    0.426391
