25 
3n3l_ligand_dft.xyz
 O    0.115734    2.454575    0.158867
 C   -0.621730    1.317273    0.021700
 C    0.198907    0.249668   -0.358607
 C    1.535520    0.802125   -0.457751
 C    1.403273    2.109819   -0.131899
 C    2.782664    0.064462   -0.827155
 C    3.212433   -0.994373    0.193014
 O    3.807839   -1.992660   -0.111019
 O    2.920334   -0.720306    1.476505
 C   -0.376213   -1.008217   -0.535429
 C   -1.741965   -1.156347   -0.335134
 C   -2.540606   -0.058143    0.044048
 C   -1.983910    1.207505    0.231032
 O   -3.878203   -0.136280    0.255549
 C   -4.513484   -1.385277    0.095049
 H    2.119983    2.916724   -0.080159
 H    3.620695    0.764208   -0.933389
 H    2.674439   -0.449308   -1.786014
 H    2.392084    0.092632    1.518029
 H    0.227804   -1.864430   -0.820788
 H   -2.187816   -2.133962   -0.472086
 H   -2.602836    2.046023    0.525784
 H   -4.416278   -1.758566   -0.932322
 H   -4.115531   -2.133022    0.792682
 H   -5.567509   -1.213901    0.315841
