25 
3n3l_ligand_aiqm1.xyz
 O    2.165646   74.987567   27.248762
 C    2.583025   76.285807   27.260586
 C    3.974604   76.354485   27.169053
 C    4.429373   74.982676   27.099018
 C    3.304557   74.230569   27.142715
 C    5.835842   74.521426   26.888023
 C    6.372160   74.871532   25.505188
 O    7.510023   75.180386   25.294143
 O    5.481002   74.761749   24.495306
 C    4.585555   77.611522   27.142013
 C    3.786955   78.746580   27.215012
 C    2.384144   78.634619   27.313447
 C    1.755333   77.391857   27.336894
 O    1.546312   79.702712   27.389648
 C    2.131951   80.993465   27.354699
 H    3.143663   73.163788   27.104729
 H    5.895977   73.433105   26.978525
 H    6.517601   74.954375   27.615910
 H    4.605894   74.586220   24.865512
 H    5.660647   77.713518   27.059810
 H    4.256854   79.717193   27.190429
 H    0.680641   77.310534   27.407000
 H    2.806353   81.145917   28.200220
 H    2.674392   81.157522   26.421264
 H    1.305394   81.693776   27.420797
