37 
3n45_ligand_ani-2x.xyz
 N   -1.297838   -0.406569    0.465717
 C   -1.328770   -0.038966   -0.954585
 C   -2.835807   -0.001541   -1.314394
 C   -3.534050   -0.247573    0.002636
 C   -2.592466   -0.485985    1.005014
 C   -2.966066   -0.771937    2.314762
 C   -4.328180   -0.798994    2.597863
 C   -5.282224   -0.552355    1.609438
 C   -4.886328   -0.275237    0.301576
 C   -0.673693    1.309452   -1.213666
 O   -0.062863    1.588039   -2.216489
 O   -0.912195    2.186121   -0.227686
 C   -0.146164   -0.347906    1.208919
 O   -0.057741   -0.457530    2.412077
 O    0.908709   -0.152238    0.390609
 C    2.174026   -0.060843    1.058801
 C    3.280879   -0.049316    0.037312
 C    4.521035   -0.591161    0.371242
 C    5.577805   -0.570059   -0.533410
 C    5.400349    0.001726   -1.789558
 C    4.166466    0.547666   -2.129552
 C    3.107783    0.524076   -1.223860
 H   -0.789128   -0.768522   -1.557517
 H   -3.120994    0.958008   -1.758120
 H   -3.069961   -0.776299   -2.051543
 H   -2.221573   -0.961693    3.080015
 H   -4.651568   -1.015498    3.613129
 H   -6.339414   -0.578957    1.860236
 H   -5.630196   -0.088888   -0.470145
 H   -0.458930    3.006964   -0.480856
 H    2.285510   -0.907066    1.744105
 H    2.174319    0.850526    1.667945
 H    4.662269   -1.037924    1.354214
 H    6.538416   -0.999368   -0.258469
 H    6.221592    0.022475   -2.501682
 H    4.018086    0.996426   -3.109027
 H    2.148906    0.951046   -1.511053
