22 
3n7a_ligand_ani-2x.xyz
 C    0.456640    0.243353   -0.935320
 C   -1.006868    0.629330   -0.867302
 O   -1.496306    0.870383   -2.167480
 C   -1.818023   -0.499764   -0.225475
 O   -3.181072   -0.119924   -0.101702
 C   -1.197509   -0.945863    1.067975
 C    0.094678   -0.765673    1.344367
 C    2.411364   -0.530070    0.475224
 O    3.275986    0.236578   -0.225540
 O    1.095756    1.346379    1.142353
 O    2.747415   -1.546502    1.024655
 C    1.006377    0.080711    0.494202
 H    1.020980    1.017227   -1.464420
 H    0.573367   -0.694411   -1.492371
 H   -1.103165    1.533121   -0.240246
 H   -2.457847    0.934149   -2.068813
 H   -1.836095   -1.345194   -0.927062
 H   -3.231513    0.554853    0.588413
 H   -1.848243   -1.468673    1.766081
 H    0.538245   -1.165635    2.250412
 H    4.142634   -0.196915   -0.149043
 H    1.813299    1.832538    0.711093
