44 
3n87_ligand_aiqm1.xyz
 O   -4.849075   -0.342451    1.173406
 C   -4.884429   -0.373112   -0.024094
 O   -6.027855   -0.242564   -0.730508
 C   -3.669184   -0.486205   -0.949940
 O   -3.964587   -1.323286   -2.056315
 C   -2.530276   -1.153586   -0.229690
 C   -1.259183   -0.739787   -0.300170
 C   -0.889871    0.526173   -1.058152
 O    0.375296    0.467564   -1.715257
 C   -1.956273    0.933558   -2.064136
 O   -1.684988    2.233510   -2.557474
 C   -3.317990    0.938815   -1.402081
 C   -0.173746   -1.472382    0.403188
 C    0.892706   -0.777847    0.978875
 C    1.924628   -1.456633    1.626855
 C    3.070589   -0.741890    2.276310
 C    3.504997    0.587216    1.746912
 C    3.424358    0.929470    0.392919
 C    3.849653    2.182841   -0.038420
 C    4.361045    3.100854    0.875468
 C    4.460592    2.758205    2.223437
 C    4.043108    1.505735    2.654370
 C    1.882622   -2.852029    1.717390
 C    0.833262   -3.553801    1.139435
 C   -0.190867   -2.871143    0.484462
 O    3.633786   -1.241130    3.233179
 H   -6.739990   -0.130620   -0.089934
 H   -4.778753   -1.016176   -2.467405
 H   -2.801844   -2.028853    0.346453
 H   -0.787577    1.336395   -0.336077
 H    0.444175   -0.379535   -2.163662
 H   -1.950981    0.206950   -2.887308
 H   -0.755227    2.252349   -2.804639
 H   -3.296271    1.620570   -0.544648
 H   -4.074003    1.304761   -2.099464
 H    0.915175    0.301250    0.917790
 H    3.035286    0.220230   -0.328182
 H    3.774538    2.440127   -1.086343
 H    4.686360    4.076783    0.539397
 H    4.869187    3.463831    2.935013
 H    4.126928    1.216250    3.693585
 H    2.676948   -3.362668    2.245009
 H    0.804016   -4.633948    1.201577
 H   -1.006287   -3.423493    0.030569
