16 
3n8k_ligand_aiqm1.xyz
 O  -41.352671    9.540384  -11.509984
 O  -37.192312    9.388507   -7.297500
 O  -40.267098    7.664151  -11.039781
 O  -37.899386   13.002433  -10.032453
 C  -39.105265   11.032313  -10.503980
 C  -38.736576    9.076174   -9.088680
 N  -37.611947   11.138857   -8.676713
 C  -40.343130    8.854088  -10.932090
 C  -38.207897   11.723288   -9.748298
 C  -39.360310    9.674799  -10.141726
 C  -37.799647    9.803375   -8.267274
 H  -41.320878   10.459648  -11.228469
 H  -37.215813   13.328835   -9.442069
 H  -39.528519   11.495781  -11.380912
 H  -38.921831    8.043306   -8.844053
 H  -36.959421   11.651963   -8.103919
