74 
3nam_ligand_ani-2x.xyz
 C    0.960259    0.792095   -0.939809
 C    2.500912    0.685286   -0.768260
 C    2.844050   -0.806130   -0.637889
 O    3.859358   -1.071066    0.344659
 C    1.544534   -1.495572   -0.240828
 O    5.369546   -0.136135   -1.038498
 C    0.502645   -0.688367   -1.045853
 O   -1.251973   -2.240621   -1.535565
 C   -0.935834   -1.067296   -0.732221
 O   -1.681760    0.398853   -2.426566
 C   -2.030106   -0.071847   -1.131678
 O   -2.562493    0.738808    1.138065
 C   -2.260262    1.131817   -0.211080
 O   -4.750123    1.214172    0.816402
 C   -1.117080    2.135822   -0.189764
 O    1.109068    2.901065    0.347684
 C    0.314104    1.672366    0.165922
 O    0.848300    3.631462   -1.788814
 C   -3.235086   -1.035744   -1.268743
 O   -3.594434   -1.530274    0.022136
 C   -2.536138   -2.211758   -1.954568
 O   -3.024859   -3.021673   -2.689707
 C    5.109854   -0.690898    0.006897
 C    6.159642   -1.012257    1.019296
 C    7.555313   -0.673262    0.559795
 C    5.916143   -1.544138    2.222725
 C    4.602893   -1.925738    2.846226
 C    1.564847   -2.998151   -0.492034
 C   -3.866615    0.721619    1.483229
 C   -4.072342    0.031111    2.808338
 C   -5.549231   -0.182337    3.132243
 C   -6.243581   -1.168434    2.192523
 C    0.394777    1.042321    1.551709
 C    1.322299    3.743674   -0.682293
 C    2.246660    4.856453   -0.261182
 C   -4.441994   -0.522239   -2.027537
 H    0.713146    1.279167   -1.884791
 H    2.843469    1.205588    0.127911
 H    3.033644    1.126970   -1.612869
 H    3.182286   -1.195537   -1.604116
 H    1.372800   -1.310639    0.828614
 H    0.654490   -0.955606   -2.098852
 H   -1.065107   -1.349792    0.318638
 H   -2.276098    1.131179   -2.643781
 H   -3.146799    1.659903   -0.582813
 H   -1.081006    2.628421   -1.163482
 H   -1.385073    2.902926    0.543065
 H   -4.557985   -1.623526    0.041813
 H    7.802171   -1.217457   -0.357634
 H    8.298474   -0.917292    1.326495
 H    7.632673    0.391199    0.316546
 H    6.801306   -1.732949    2.835514
 H    3.899984   -1.087504    2.840052
 H    4.129615   -2.742017    2.293582
 H    4.748479   -2.251521    3.880107
 H    2.377262   -3.470381    0.071466
 H    1.731375   -3.208156   -1.555555
 H    0.623392   -3.468433   -0.195756
 H   -3.527564   -0.921564    2.794313
 H   -3.593344    0.652728    3.577981
 H   -5.629245   -0.542246    4.164293
 H   -6.062660    0.784734    3.088439
 H   -7.267791   -1.366211    2.524041
 H   -5.715801   -2.129929    2.162119
 H   -6.293360   -0.767449    1.176759
 H    1.427671    0.758190    1.779381
 H    0.079124    1.778345    2.294750
 H   -0.244529    0.165360    1.634189
 H    2.419374    5.526081   -1.104653
 H    3.197886    4.435498    0.080424
 H    1.804044    5.412717    0.570940
 H   -4.164587   -0.153985   -3.019299
 H   -5.154233   -1.341976   -2.166301
 H   -4.926816    0.278876   -1.459862
