74 
3nam_ligand_xtb.xyz
 C    0.934050    0.680384   -1.333582
 C    2.461463    0.517452   -1.433835
 C    2.815368   -0.894564   -0.946233
 O    3.415127   -0.870953    0.353088
 C    1.498618   -1.679908   -0.857054
 O    5.406346   -0.398281   -0.561391
 C    0.435717   -0.769296   -1.494930
 O   -1.431236   -2.276220   -1.645022
 C   -0.967593   -1.089303   -0.993772
 O   -1.732540    0.590562   -2.513936
 C   -2.034443   -0.015101   -1.284196
 O   -2.203539    0.398514    1.108802
 C   -2.103961    1.035600   -0.158580
 O   -4.114134    1.492248    1.561448
 C   -0.934129    2.022003   -0.177042
 O    1.364309    2.656976    0.009620
 C    0.505789    1.479291   -0.079186
 O    0.788483    3.590253   -1.965292
 C   -3.316742   -0.883366   -1.427565
 O   -3.857381   -1.156557   -0.146427
 C   -2.724272   -2.212845   -1.940068
 O   -3.344077   -3.099475   -2.452977
 C    4.729669   -0.613867    0.415558
 C    5.256338   -0.588505    1.804826
 C    6.455338    0.302644    1.954519
 C    4.770978   -1.301186    2.822600
 C    3.633578   -2.262123    2.828992
 C    1.585379   -3.045227   -1.527343
 C   -3.279904    0.684843    1.864344
 C   -3.240574   -0.113676    3.144352
 C   -4.613823   -0.202716    3.806314
 C   -5.566534   -1.074733    2.998790
 C    0.769533    0.778451    1.250396
 C    1.434735    3.577095   -0.949382
 C    2.464732    4.619583   -0.590624
 C   -4.378276   -0.329055   -2.369040
 H    0.581296    1.264689   -2.185690
 H    2.996292    1.260276   -0.843860
 H    2.773209    0.631178   -2.471028
 H    3.531680   -1.365474   -1.627894
 H    1.271128   -1.819882    0.202756
 H    0.421209   -0.967760   -2.571090
 H   -0.974764   -1.293560    0.082385
 H   -2.309867    1.351095   -2.650044
 H   -3.026952    1.620634   -0.297844
 H   -1.003399    2.609452   -1.093533
 H   -1.079785    2.702491    0.666935
 H   -4.602091   -1.760672   -0.261068
 H    7.167084    0.084657    1.160852
 H    6.931371    0.162196    2.920570
 H    6.162272    1.347358    1.852805
 H    5.264176   -1.190466    3.781939
 H    2.757636   -1.788416    3.273816
 H    3.370970   -2.590220    1.829087
 H    3.887024   -3.127245    3.439866
 H    2.335145   -3.661889   -1.036452
 H    1.857678   -2.937792   -2.574771
 H    0.625768   -3.550739   -1.473338
 H   -2.848764   -1.105126    2.915752
 H   -2.530006    0.384493    3.809403
 H   -4.499395   -0.612664    4.811583
 H   -5.028161    0.802903    3.890572
 H   -6.538949   -1.124750    3.482267
 H   -5.174254   -2.085193    2.904360
 H   -5.694493   -0.657710    2.003954
 H    1.781031    0.387005    1.274538
 H    0.662716    1.505218    2.052938
 H    0.060527   -0.022218    1.415630
 H    2.155916    5.585831   -0.978016
 H    3.406587    4.345612   -1.062743
 H    2.606479    4.659317    0.484505
 H   -3.947554   -0.095715   -3.338702
 H   -5.144662   -1.088330   -2.514445
 H   -4.834533    0.559174   -1.935538
