43 
3ncg_ligand_xtb.xyz
 N   26.999328    7.141045    7.133962
 C   27.126084    6.165584    6.243802
 N   26.686536    6.124696    5.005972
 C   26.025536    7.232993    4.653963
 C   25.801877    8.351494    5.494864
 C   26.343317    8.249619    6.791794
 C   26.124804    7.379898    1.138789
 C   23.970101    6.342858    1.944405
 N   26.195683    9.202169    7.737066
 C   25.183327   14.194696    8.786588
 C   24.086142   13.442421    8.343471
 C   27.948542   12.221687    5.358801
 C   26.868048   11.444073    4.926622
 C   26.390169   14.065431    8.161687
 C   27.800915   13.065662    6.422075
 C   24.216093   12.571694    7.298022
 C   24.541574   10.598635    5.042446
 N   24.880776    8.728322    3.487358
 C   25.641515   11.502355    5.543719
 C   25.067069    9.251147    4.677216
 C   26.557174   13.180477    7.075321
 C   25.451127   12.400639    6.631652
 C   25.419342    6.672506    2.293379
 N   25.455239    7.511590    3.468032
 H   27.669310    5.293811    6.585359
 H   26.106057    6.755938    0.249795
 H   25.620942    8.319472    0.925765
 H   27.160390    7.588057    1.397884
 H   23.490056    5.824980    2.771462
 H   23.425890    7.262464    1.744171
 H   23.932211    5.707054    1.064429
 H   26.718940    9.077264    8.586916
 H   25.920186   10.132919    7.471441
 H   25.063468   14.875952    9.615776
 H   23.130677   13.557925    8.833692
 H   28.896024   12.141526    4.847169
 H   27.003531   10.777819    4.087029
 H   27.242502   14.645652    8.485367
 H   28.628700   13.664201    6.773597
 H   23.349403   12.017469    6.972308
 H   24.076816   11.033717    4.153727
 H   23.766447   10.467308    5.799896
 H   25.960934    5.761683    2.570112
