48 
3nee_ligand_ani-2x.xyz
 O  -20.093365   -2.433542    3.612024
 C  -20.840070   -2.131528    2.527836
 O  -21.197174   -2.983791    1.765618
 C  -21.121490   -0.629621    2.382492
 O  -22.134523   -0.324516    1.461333
 C  -21.802896   -0.129037    0.143872
 C  -20.757948   -0.784743   -0.495851
 C  -20.501915   -0.530032   -1.845131
 C  -19.414973   -1.307533   -2.547056
 C  -21.264195    0.416640   -2.541976
 C  -22.381907    0.997544   -1.917217
 C  -22.629424    0.733841   -0.575223
 C  -23.317744    1.893451   -2.691687
 C  -20.959292    0.736908   -3.988210
 C  -21.737594   -0.088539   -5.006258
 C  -21.703169    0.299081   -6.351305
 C  -22.388372   -0.379732   -7.355899
 C  -22.312032   -0.000196   -8.826921
 C  -21.911263    1.457896   -9.046213
 C  -21.359982   -0.932621   -9.588693
 C  -23.141994   -1.500517   -6.980876
 O  -23.828629   -2.161206   -7.963572
 C  -23.193435   -1.911925   -5.653279
 C  -22.492805   -1.212856   -4.676424
 H  -19.873034   -1.629119    4.101245
 H  -20.180091   -0.120839    2.117935
 H  -21.458116   -0.236723    3.348496
 H  -20.172902   -1.535846    0.026724
 H  -18.576519   -0.662938   -2.836668
 H  -19.025305   -2.096813   -1.899042
 H  -19.800490   -1.771928   -3.463632
 H  -23.472781    1.194486   -0.066585
 H  -22.821019    2.819717   -3.002045
 H  -23.670905    1.393446   -3.601010
 H  -24.185759    2.164224   -2.086223
 H  -19.883462    0.621924   -4.178575
 H  -21.166433    1.799320   -4.177253
 H  -21.120814    1.177941   -6.617690
 H  -23.317912   -0.143387   -9.238785
 H  -22.550114    2.138313   -8.472507
 H  -20.868359    1.635420   -8.757518
 H  -22.003496    1.718981  -10.106076
 H  -20.343909   -0.855678   -9.183981
 H  -21.681377   -1.974045   -9.510212
 H  -21.328990   -0.659952  -10.649368
 H  -24.285109   -2.914720   -7.570291
 H  -23.784669   -2.785430   -5.381210
 H  -22.550142   -1.550579   -3.643014
