48 
3nee_ligand_xtb.xyz
 O  -21.228336   -2.887876    2.879041
 C  -21.822081   -2.073957    1.981962
 O  -22.489054   -2.506068    1.095510
 C  -21.558305   -0.584480    2.232747
 O  -22.131675    0.249801    1.272310
 C  -21.647066    0.214010   -0.014680
 C  -20.565530   -0.536277   -0.442581
 C  -20.147056   -0.481873   -1.767578
 C  -18.983413   -1.336082   -2.184613
 C  -20.807305    0.345191   -2.674936
 C  -21.904604    1.099346   -2.243984
 C  -22.309591    1.029810   -0.923857
 C  -22.652203    1.982083   -3.197347
 C  -20.393533    0.413143   -4.120967
 C  -21.339570   -0.341810   -5.024519
 C  -21.550937    0.084302   -6.328834
 C  -22.394944   -0.584569   -7.200806
 C  -22.615813   -0.099215   -8.613238
 C  -23.236181    1.299269   -8.615814
 C  -21.307073   -0.114419   -9.405119
 C  -23.050876   -1.728239   -6.736788
 O  -23.890609   -2.400045   -7.581799
 C  -22.847541   -2.164301   -5.434572
 C  -21.999642   -1.479716   -4.584797
 H  -20.733201   -2.414869    3.560362
 H  -20.472402   -0.413424    2.324019
 H  -22.038164   -0.306001    3.179016
 H  -20.041102   -1.196424    0.231980
 H  -18.132618   -0.718556   -2.473488
 H  -18.671394   -1.979025   -1.365280
 H  -19.249015   -1.967766   -3.030477
 H  -23.154579    1.601415   -0.573820
 H  -22.012978    2.788804   -3.556412
 H  -22.989359    1.412604   -4.061742
 H  -23.516797    2.422954   -2.708864
 H  -19.390729    0.001332   -4.247718
 H  -20.354163    1.456522   -4.442537
 H  -21.040583    0.971616   -6.674990
 H  -23.316558   -0.787375   -9.093333
 H  -24.165410    1.302037   -8.050451
 H  -22.560366    2.024896   -8.169232
 H  -23.450664    1.612494   -9.635288
 H  -20.585540    0.577161   -8.976453
 H  -20.872647   -1.111546   -9.398588
 H  -21.489983    0.176561  -10.437285
 H  -24.268151   -3.154892   -7.115345
 H  -23.362815   -3.049146   -5.082706
 H  -21.865742   -1.828198   -3.572009
