52 
3neo_ligand_aiqm1.xyz
 C   21.052943   -1.727807  -23.077266
 C   20.325159   -2.269206  -22.021161
 C   20.506588   -1.792136  -20.725434
 C   21.418672   -0.767602  -20.493938
 C   22.146737   -0.226656  -21.552721
 C   21.977235   -0.702216  -22.855842
 C   22.777579   -0.111566  -23.999841
 C   21.932866    0.164149  -25.219728
 C   22.060658   -0.576126  -26.394089
 C   20.964558    1.170803  -25.184036
 O   20.863506    1.897580  -24.029799
 C   20.159723    1.417915  -26.288103
 C   20.303596    0.662994  -27.447602
 C   21.257479   -0.352966  -27.521321
 C   21.436261   -1.193229  -28.770393
 C   21.243519   -0.416306  -30.052744
 C   20.137450   -0.651236  -30.891956
 C   19.111477   -1.708704  -30.572773
 C   19.973317    0.105954  -32.049312
 C   22.176701    0.572114  -30.404283
 C   23.379516    0.849549  -29.543704
 C   22.001813    1.319786  -31.572205
 C   20.900653    1.083170  -32.384745
 O   20.681233    1.753206  -33.572397
 C   21.375804    2.973271  -33.752362
 C   22.778224    2.767486  -34.317203
 O   23.013928    1.550434  -34.825020
 O   23.596933    3.643483  -34.327233
 H   20.898875   -2.097329  -24.084708
 H   19.611769   -3.062546  -22.208613
 H   19.937980   -2.212511  -19.906480
 H   21.564220   -0.382931  -19.491969
 H   22.847083    0.579843  -21.366336
 H   23.584786   -0.798583  -24.273846
 H   23.241377    0.816739  -23.658270
 H   22.817186   -1.354226  -26.433474
 H   20.140491    2.522696  -24.122634
 H   19.415296    2.207185  -26.244543
 H   19.673761    0.879980  -28.300272
 H   20.745579   -2.039388  -28.730750
 H   22.440024   -1.629121  -28.755669
 H   19.557873   -2.705447  -30.566985
 H   18.661174   -1.547999  -29.591550
 H   18.313836   -1.704245  -31.314731
 H   19.128840   -0.064547  -32.707006
 H   23.090389    1.236162  -28.565368
 H   23.961516   -0.056958  -29.369951
 H   24.032382    1.579851  -30.021831
 H   22.742520    2.068719  -31.817284
 H   21.443741    3.556612  -32.834379
 H   20.803493    3.544686  -34.482454
 H   22.215281    1.020517  -34.686289
