48 
3nes_ligand_aiqm1.xyz
 O    3.208491   -2.296971    2.091958
 C    2.059602   -1.597338    1.898992
 O    0.997168   -2.137120    1.937555
 C    2.288800   -0.108181    1.654606
 O    1.124187    0.587863    1.313340
 C    0.615918    0.391050    0.051466
 C    1.171808   -0.465075   -0.888544
 C    0.590754   -0.583519   -2.154463
 C    1.210865   -1.526721   -3.150376
 C   -0.550662    0.165108   -2.481411
 C   -1.112452    1.021204   -1.514075
 C   -0.519854    1.128723   -0.259176
 C   -2.351913    1.831111   -1.797926
 C   -1.143118    0.044765   -3.866588
 C   -0.254729    0.618153   -4.954502
 C   -0.146661   -0.023311   -6.194395
 C    0.654690    0.460375   -7.229569
 C    0.758318   -0.206014   -8.587960
 C    0.379275   -1.685488   -8.564277
 C   -0.098286    0.538727   -9.619297
 C    1.372840    1.636765   -6.986242
 O    2.169502    2.113283   -7.999233
 C    1.293731    2.287006   -5.763002
 C    0.484647    1.783001   -4.750932
 H    3.964143   -1.705992    2.033853
 H    3.079056    0.017123    0.902126
 H    2.636358    0.337733    2.587775
 H    2.037730   -1.074917   -0.662781
 H    1.616527   -0.992665   -4.011328
 H    2.017773   -2.097490   -2.688862
 H    0.475858   -2.236298   -3.532526
 H   -0.941555    1.777284    0.500562
 H   -2.219474    2.479183   -2.666896
 H   -3.208775    1.185068   -2.001025
 H   -2.602926    2.459095   -0.943748
 H   -2.117748    0.537593   -3.907263
 H   -1.333842   -1.009604   -4.089272
 H   -0.704434   -0.939494   -6.346872
 H    1.804338   -0.129771   -8.900311
 H    0.934148   -2.235004   -7.802006
 H   -0.688406   -1.816114   -8.371133
 H    0.592636   -2.136699   -9.534698
 H   -1.154916    0.481029   -9.342205
 H    0.187600    1.589081   -9.679143
 H    0.017645    0.089418  -10.608333
 H    2.622242    2.899005   -7.686363
 H    1.869466    3.193029   -5.595827
 H    0.444639    2.294112   -3.798274
