48 
3nes_ligand_xtb.xyz
 O    2.859784   -2.486212    2.239442
 C    1.855735   -1.661183    1.877615
 O    0.737432   -2.053139    1.764748
 C    2.300731   -0.211382    1.650862
 O    1.269354    0.622053    1.215775
 C    0.732341    0.417158   -0.033989
 C    1.187549   -0.504646   -0.961201
 C    0.581338   -0.605742   -2.206949
 C    1.095659   -1.619951   -3.184284
 C   -0.492502    0.221674   -2.536508
 C   -0.945065    1.161616   -1.605328
 C   -0.329788    1.247755   -0.368575
 C   -2.089160    2.086596   -1.908334
 C   -1.124175    0.098452   -3.898449
 C   -0.254532    0.676760   -4.988221
 C   -0.215931    0.089616   -6.245643
 C    0.554763    0.597347   -7.279377
 C    0.587021   -0.062815   -8.636664
 C    1.132751   -1.488392   -8.533488
 C   -0.802080   -0.057994   -9.277284
 C    1.315439    1.743785   -7.033733
 O    2.084230    2.258211   -8.041296
 C    1.285772    2.340539   -5.780494
 C    0.508758    1.813611   -4.766401
 H    3.714906   -2.043283    2.314660
 H    3.158685   -0.192502    0.958001
 H    2.618818    0.203901    2.615032
 H    2.004415   -1.173029   -0.733866
 H    1.976578   -2.121252   -2.791515
 H    0.336470   -2.376108   -3.383083
 H    1.353336   -1.147171   -4.130724
 H   -0.665625    1.962543    0.366143
 H   -1.909768    2.646999   -2.824640
 H   -3.015736    1.525505   -2.027536
 H   -2.225887    2.793366   -1.094124
 H   -2.086662    0.612236   -3.914266
 H   -1.317908   -0.953666   -4.118825
 H   -0.806722   -0.797332   -6.423234
 H    1.260914    0.518663   -9.271419
 H    2.120258   -1.483844   -8.077337
 H    0.478239   -2.112212   -7.929305
 H    1.211395   -1.932111   -9.523552
 H   -1.502439   -0.648107   -8.690991
 H   -1.183293    0.958325   -9.346508
 H   -0.753905   -0.478453  -10.279416
 H    2.541981    3.043467   -7.719490
 H    1.880492    3.227480   -5.599735
 H    0.507035    2.284965   -3.795093
