45 
3ng4_ligand_ani-2x.xyz
 C   -0.949576   -1.068358    0.184863
 C   -1.798243   -1.371063   -1.044969
 C   -2.515086   -0.109032   -1.482655
 C   -3.336821    0.440532   -0.329152
 C   -2.429526    0.637968    0.897954
 C   -3.205243    1.000701    2.153240
 O    0.037214   -0.130219   -0.181198
 O   -0.925332   -1.854030   -2.050992
 O   -3.331094   -0.442845   -2.586327
 O   -3.898352    1.651996   -0.780971
 O   -1.745703   -0.575036    1.224282
 O   -3.916087    2.211413    1.905520
 C    4.187062   -0.074345   -0.186441
 C    3.534549   -1.441153   -0.398344
 C    2.078965   -1.262145   -0.787301
 C    1.359194   -0.405787    0.254209
 C    2.110399    0.918963    0.391033
 C    1.564551    1.822268    1.486693
 O    4.242160    0.622722   -1.406843
 O    4.232745   -2.073510   -1.454919
 O    1.523458   -2.553256   -0.921573
 O    3.470779    0.667487    0.758250
 O    2.265679    3.041217    1.529412
 H   -0.471199   -1.984323    0.553256
 H   -2.543530   -2.138354   -0.794214
 H   -1.765988    0.645681   -1.764595
 H   -4.126528   -0.292266   -0.077585
 H   -1.706373    1.436298    0.667427
 H   -3.894574    0.176137    2.380655
 H   -2.508359    1.117359    2.992340
 H   -1.423627   -1.872369   -2.879984
 H   -3.819596    0.360852   -2.814634
 H   -4.176181    2.145190    0.009892
 H   -4.582401    2.331394    2.590824
 H    5.200506   -0.193959    0.227712
 H    3.598012   -2.037237    0.523716
 H    2.039095   -0.729157   -1.749837
 H    1.340771   -0.926954    1.223533
 H    2.079033    1.453658   -0.568167
 H    0.514734    2.062861    1.287438
 H    1.613700    1.292911    2.453274
 H    4.503800   -0.047243   -2.062559
 H    3.660564   -2.798901   -1.747665
 H    0.711628   -2.462418   -1.452583
 H    3.201023    2.806054    1.608786
