60 
3njq_ligand_ani-2x.xyz
 C    1.009190  -31.251822  -18.141777
 C    1.395257  -32.342191  -19.116372
 C    1.636794  -32.035284  -20.450497
 C    1.977775  -33.024871  -21.376788
 C    2.067720  -34.349397  -20.947347
 C    1.860367  -34.678419  -19.618203
 C    1.518464  -33.682959  -18.702475
 N    1.257354  -33.996181  -17.353549
 C    2.218543  -32.745415  -22.827927
 O    2.136171  -33.587979  -23.683013
 O    2.545778  -31.475310  -23.157679
 C   -0.456059  -31.237004  -17.724646
 C   -3.161743  -31.050446  -17.001065
 C   -2.789593  -31.735954  -18.152800
 C   -1.447400  -31.831225  -18.508571
 C   -0.840235  -30.578518  -16.551263
 C   -2.181010  -30.476839  -16.196076
 C    1.839746  -34.982775  -16.613709
 O    2.634038  -35.810581  -17.033455
 C    1.432693  -34.963197  -15.164025
 C    2.049872  -35.827939  -14.272295
 C    1.659914  -35.766329  -12.941417
 C    0.675481  -34.858861  -12.566830
 C    0.094749  -34.039520  -13.538684
 N    0.481696  -34.091805  -14.815248
 C   -1.011180  -33.064954  -13.199879
 C   -2.433169  -33.642003  -13.342753
 C   -2.768877  -34.048985  -14.791463
 C   -3.483066  -32.653886  -12.821627
 C   -5.054927  -34.434081  -13.761606
 C   -4.884475  -33.294093  -12.741341
 C   -4.285439  -34.134545  -15.048520
 H    1.256577  -30.286860  -18.603370
 H    1.634897  -31.315732  -17.240191
 H    1.504534  -31.000763  -20.770645
 H    2.310923  -35.116416  -21.676104
 H    1.961337  -35.701577  -19.275027
 H    0.628197  -33.380470  -16.849910
 H    2.697198  -30.951102  -22.359297
 H   -4.212447  -30.962146  -16.735821
 H   -3.548315  -32.195846  -18.780106
 H   -1.166419  -32.374736  -19.408344
 H   -0.084888  -30.125429  -15.912368
 H   -2.463912  -29.941988  -15.291405
 H    2.809327  -36.513765  -14.635296
 H    2.119002  -36.416534  -12.200401
 H    0.365223  -34.783439  -11.527572
 H   -0.908931  -32.190841  -13.854695
 H   -0.878042  -32.715953  -12.167384
 H   -2.491237  -34.544009  -12.712403
 H   -2.292733  -35.011623  -15.008078
 H   -2.324250  -33.328461  -15.492009
 H   -3.504904  -31.776620  -13.487519
 H   -3.184005  -32.276325  -11.835426
 H   -6.118186  -34.596621  -13.972913
 H   -4.680250  -35.372831  -13.332242
 H   -5.641742  -32.519112  -12.913609
 H   -5.063904  -33.687582  -11.733638
 H   -4.491899  -34.897417  -15.807184
 H   -4.644280  -33.181834  -15.462945
