60 
3njq_ligand_aiqm1.xyz
 C    1.121207  -31.152845  -18.203514
 C    1.526327  -32.249150  -19.160974
 C    1.745641  -31.938438  -20.499789
 C    2.132800  -32.910944  -21.423466
 C    2.298489  -34.223389  -20.985922
 C    2.088696  -34.565560  -19.660172
 C    1.695608  -33.582832  -18.742352
 N    1.423563  -33.890751  -17.402037
 C    2.362697  -32.627271  -22.870628
 O    2.374566  -33.478394  -23.717253
 O    2.575358  -31.332621  -23.217753
 C   -0.326686  -31.183322  -17.742874
 C   -2.993394  -31.141553  -16.858946
 C   -2.613365  -31.973645  -17.908728
 C   -1.290401  -31.994541  -18.350077
 C   -0.716784  -30.356743  -16.682752
 C   -2.037604  -30.332886  -16.245840
 C    1.790451  -35.005059  -16.711186
 O    2.470173  -35.921498  -17.141316
 C    1.278795  -34.996950  -15.297204
 C    1.696760  -35.995900  -14.431069
 C    1.210610  -35.966900  -13.128471
 C    0.326370  -34.960661  -12.766801
 C   -0.054146  -33.997452  -13.713264
 N    0.429683  -34.017092  -14.958365
 C   -1.085767  -32.954484  -13.376160
 C   -2.489821  -33.571141  -13.302373
 C   -2.872087  -34.238179  -14.635886
 C   -3.549658  -32.539900  -12.925324
 C   -5.063185  -34.525876  -13.416393
 C   -4.887640  -33.230093  -12.606103
 C   -4.398915  -34.389161  -14.784406
 H    1.296221  -30.190915  -18.691385
 H    1.773391  -31.163189  -17.323729
 H    1.573410  -30.912925  -20.812578
 H    2.587216  -34.970532  -21.712949
 H    2.232354  -35.582915  -19.327592
 H    0.847292  -33.258261  -16.865019
 H    2.638975  -30.790236  -22.427023
 H   -4.022135  -31.130049  -16.518486
 H   -3.343632  -32.617816  -18.379841
 H   -1.007140  -32.645466  -19.168330
 H    0.023308  -29.728799  -16.197770
 H   -2.312813  -29.690670  -15.418266
 H    2.375684  -36.752685  -14.792402
 H    1.507953  -36.720207  -12.410568
 H   -0.080532  -34.919182  -11.763756
 H   -1.075818  -32.178162  -14.144175
 H   -0.841263  -32.492375  -12.414304
 H   -2.478003  -34.337563  -12.512963
 H   -2.384923  -35.217459  -14.696316
 H   -2.471680  -33.640119  -15.456701
 H   -3.670304  -31.848488  -13.767693
 H   -3.220929  -31.939739  -12.071881
 H   -6.125059  -34.760619  -13.520005
 H   -4.610524  -35.366835  -12.881158
 H   -5.706910  -32.541869  -12.824199
 H   -4.941220  -33.461230  -11.540000
 H   -4.631204  -35.247032  -15.417883
 H   -4.818761  -33.508832  -15.284429
