21 
3njy_ligand_ani-2x.xyz
 O   24.290438  -22.695779   -2.921073
 O   23.087247  -22.136647   -4.688675
 O   29.117466  -21.673722   -6.915065
 C   24.908569  -19.184122   -7.254351
 C   26.198035  -19.147645   -7.828881
 C   27.768385  -22.821652   -5.336636
 C   26.533738  -22.926605   -4.670816
 C   24.624798  -20.132963   -6.307452
 N   27.152916  -19.984783   -7.507518
 C   24.181236  -22.281072   -4.206622
 C   27.950216  -21.827744   -6.265433
 C   25.478281  -22.074450   -4.926861
 C   25.630621  -21.056686   -5.917349
 C   26.879692  -20.929421   -6.568255
 H   25.208443  -22.623379   -2.625608
 H   28.985113  -20.912390   -7.512155
 H   24.157311  -18.465293   -7.568770
 H   26.436235  -18.397584   -8.582069
 H   28.582181  -23.503932   -5.112855
 H   26.410128  -23.739647   -3.956718
 H   23.642251  -20.203685   -5.853536
