20 
3nm6_ligand_xtb.xyz
 C   38.696877   -4.724709   66.043260
 C   40.145590   -5.235607   66.056893
 C   37.676208   -5.862181   66.199806
 C   38.468284   -3.593113   67.056762
 N   38.468798   -4.134448   64.690976
 O   40.925420   -4.227986   65.448390
 O   37.678067   -6.565640   64.975534
 O   37.306016   -2.912402   66.633079
 H   40.204043   -6.172082   65.487904
 H   40.459984   -5.423489   67.088200
 H   36.686451   -5.434295   66.403216
 H   37.966896   -6.504976   67.036513
 H   39.337168   -2.922949   67.052545
 H   38.347289   -4.015603   68.059076
 H   38.149344   -4.901987   64.077225
 H   37.747337   -3.402654   64.799394
 H   39.371609   -3.741494   64.377430
 H   41.859966   -4.449711   65.511031
 H   37.123007   -7.349085   65.043241
 H   37.058043   -2.245790   67.281626
