41 
3nok_ligand_dft.xyz
 N   -4.890089    0.076269    0.154830
 O   -4.757485    0.483296    1.435447
 C   -5.184019    1.252719   -0.716253
 C   -6.025642   -0.886509    0.064212
 C   -3.634118   -0.627882   -0.311240
 C   -2.399561    0.244242   -0.171277
 C   -1.113147   -0.580838   -0.220678
 C    0.143301    0.282710   -0.113077
 C    1.436728   -0.531163   -0.131331
 C    2.693944    0.332073   -0.028831
 C    3.987988   -0.481304   -0.041717
 C    5.245554    0.381522    0.059166
 C    6.540487   -0.431374    0.048446
 C    7.790986    0.440339    0.148704
 H   -6.116998    1.683484   -0.354377
 H   -4.382307    1.973114   -0.567387
 H   -5.265904    0.965555   -1.770047
 H   -5.793443   -1.711234    0.737077
 H   -6.909762   -0.365453    0.430207
 H   -6.173495   -1.243502   -0.960790
 H   -3.780439   -0.979830   -1.340296
 H   -3.553711   -1.491268    0.353743
 H   -2.492138    0.761623    0.789145
 H   -2.369013    1.001961   -0.964886
 H   -1.073613   -1.162101   -1.153586
 H   -1.121469   -1.312326    0.599054
 H    0.095874    0.873026    0.812333
 H    0.158306    1.007912   -0.939159
 H    1.479354   -1.126849   -1.054509
 H    1.423123   -1.252623    0.697902
 H    2.649620    0.929669    0.892676
 H    2.709066    1.052129   -0.859469
 H    4.031445   -1.080477   -0.962533
 H    3.973033   -1.200104    0.789966
 H    5.202037    0.981657    0.979341
 H    5.261656    1.099934   -0.773048
 H    6.582860   -1.030965   -0.870778
 H    6.523885   -1.147609    0.880857
 H    7.847107    1.144344   -0.689671
 H    7.787034    1.027398    1.074410
 H    8.703397   -0.164927    0.139692
