32 
3nq3_ligand_ani-2x.xyz
 C    7.896630   -0.549371    1.114028
 O    7.101315   -1.637765    1.249372
 C    9.130908   -0.731237    0.243764
 C    9.983757   -1.960173    0.569994
 C   11.280147   -1.984249   -0.237675
 C   12.160666   -3.192049    0.075569
 C   13.466729   -3.210929   -0.717107
 C   14.343657   -4.422671   -0.406697
 C   15.649104   -4.441486   -1.199280
 C   16.528283   -5.652646   -0.891220
 C   17.829431   -5.658401   -1.690157
 O    7.599553    0.483332    1.649708
 H    7.472811   -2.381258    0.755904
 H    9.722283    0.179903    0.356625
 H    8.804698   -0.774106   -0.806250
 H    9.423954   -2.886563    0.368219
 H   10.215394   -1.969119    1.643300
 H   11.844883   -1.060699   -0.043503
 H   11.039810   -1.976890   -1.310957
 H   11.598847   -4.115245   -0.130450
 H   12.387630   -3.206732    1.152272
 H   14.032309   -2.290128   -0.509451
 H   13.239081   -3.192538   -1.793606
 H   13.778419   -5.343836   -0.614166
 H   14.570884   -4.441305    0.669925
 H   16.214511   -3.520605   -0.991789
 H   15.421867   -4.422435   -2.275739
 H   15.962203   -6.570968   -1.100410
 H   16.754771   -5.668892    0.183940
 H   17.628260   -5.671034   -2.767901
 H   18.425680   -4.763586   -1.475788
 H   18.442426   -6.534221   -1.453377
