14 
3nrz_ligand_dft.xyz
 N   26.080825   89.933167   73.250795
 C   25.010501   89.103391   73.017826
 N   23.768380   89.447555   73.079128
 C   23.578505   90.765424   73.409403
 C   24.612610   91.656277   73.657164
 C   25.997344   91.295153   73.594950
 O   26.984021   91.984164   73.789796
 N   24.007735   92.850700   73.947418
 C   22.668420   92.624433   73.862583
 N   22.366491   91.386518   73.541936
 H   27.020829   89.565529   73.177136
 H   25.272094   88.079851   72.763609
 H   24.478734   93.712594   74.175432
 H   21.947512   93.409245   74.046824
