55 
3ns9_ligand_ani-2x.xyz
 N    1.169494    2.464726   -0.330151
 N    0.565810    1.238662   -0.314382
 C    1.224659    0.031164   -0.231673
 C    0.453340   -1.104078   -0.185729
 C   -0.962842   -0.965948   -0.259205
 N   -1.581173    0.219037   -0.363388
 C   -0.802818    1.315002   -0.362451
 C   -1.114831    2.679292   -0.416038
 C    0.147083    3.308317   -0.397075
 N    2.579260    0.111220   -0.234066
 C    3.391345   -1.039390    0.131214
 C    4.857393   -0.679141    0.153026
 C    5.400249    0.130853   -0.844465
 C    6.757947    0.432616   -0.850243
 C    7.588694   -0.065255    0.150335
 C    7.053763   -0.871232    1.150270
 C    5.695609   -1.176613    1.148308
 N   -1.732931   -2.092609   -0.189087
 C   -3.082243   -2.222652   -0.719666
 C   -4.161537   -1.378678   -0.018091
 C   -3.999414   -1.243590    1.495430
 O   -5.057516   -0.455169    1.998411
 C   -3.444632   -3.703334   -0.639463
 O   -2.397572   -4.439587   -1.251812
 O   -4.288082   -0.083276   -0.578030
 C   -2.515014    3.204871   -0.402696
 C   -3.229717    2.859797    0.913363
 C   -2.575620    4.706797   -0.670494
 H    0.911413   -2.082356   -0.088543
 H    0.333243    4.374880   -0.426474
 H    2.924862    1.027978    0.028899
 H    3.101461   -1.449124    1.113053
 H    3.216350   -1.837953   -0.603025
 H    4.748887    0.521775   -1.622945
 H    7.167058    1.066359   -1.633917
 H    8.649064    0.173779    0.148744
 H    7.695891   -1.264596    1.935083
 H    5.283843   -1.809520    1.932605
 H   -1.206405   -2.951835   -0.296777
 H   -3.106076   -1.909539   -1.776068
 H   -5.127262   -1.863633   -0.216777
 H   -3.028957   -0.777074    1.714734
 H   -4.036638   -2.216081    2.000114
 H   -5.184136    0.227078    1.319341
 H   -4.403777   -3.879458   -1.149673
 H   -3.558195   -3.992303    0.419461
 H   -2.556042   -5.376762   -1.091890
 H   -3.372544    0.272329   -0.630098
 H   -3.063137    2.693161   -1.211525
 H   -3.184833    1.784970    1.119325
 H   -2.748081    3.377469    1.751097
 H   -4.281261    3.167019    0.875781
 H   -2.097254    4.953239   -1.623607
 H   -3.612924    5.058288   -0.701907
 H   -2.056583    5.254967    0.123839
