26 
3nsq_ligand_ani-2x.xyz
 O   52.678873  -16.078318    6.962229
 C   53.496024  -16.457473    7.779368
 C   54.539029  -17.467929    7.421919
 C   54.546034  -17.962586    6.121338
 C   55.496761  -18.898814    5.755187
 C   56.441039  -19.347173    6.672917
 C   56.446974  -18.861020    7.979921
 O   57.381051  -19.334680    8.807937
 C   55.480122  -17.901502    8.371756
 C   55.478566  -17.373778    9.772150
 O   56.310509  -17.771067   10.575153
 C   54.437890  -16.362222   10.136332
 C   53.494225  -15.928181    9.182821
 C   52.516887  -14.987690    9.500659
 C   52.465340  -14.464910   10.775139
 C   53.386005  -14.876036   11.737643
 C   54.367139  -15.814036   11.434893
 O   55.254730  -16.206017   12.373938
 H   53.799882  -17.597314    5.425548
 H   55.511787  -19.292058    4.742275
 H   57.191413  -20.081225    6.397028
 H   57.247674  -18.896452    9.676415
 H   51.817990  -14.691866    8.726524
 H   51.709212  -13.730593   11.038845
 H   53.338729  -14.458191   12.742567
 H   55.058412  -15.732870   13.192897
