17 
3nus_ligand_xtb.xyz
 C  -41.652763   16.793738   12.717659
 C  -42.689615   15.999243   12.210886
 C  -40.402843   16.272371   12.957886
 C  -42.509720   14.664932   11.929317
 C  -40.191529   14.922938   12.682209
 C  -41.246554   14.128952   12.169052
 C  -39.087635   14.014933   12.778227
 N  -39.434826   12.816356   12.365340
 N  -40.740602   12.885174   12.000098
 N  -37.846774   14.286081   13.300683
 H  -41.847770   17.836059   12.922120
 H  -43.655102   16.452069   12.038493
 H  -39.607780   16.887518   13.353181
 H  -43.310209   14.054794   11.539153
 H  -41.204345   12.055380   11.674589
 H  -37.158107   13.578488   13.096047
 H  -37.522829   15.230974   13.166059
