17 
3nuy_ligand_xtb.xyz
 C  -40.580132   17.134594   13.482616
 C  -41.742893   17.623898   12.889374
 C  -40.170971   15.842998   13.238125
 C  -42.494975   16.827705   12.055277
 C  -42.479203   13.542840   10.736289
 C  -40.920679   15.021052   12.395172
 C  -42.095682   15.513403   11.794995
 C  -40.498201   13.648571   12.126822
 N  -42.864459   14.737347   10.958006
 N  -41.362277   12.974037   11.265582
 O  -39.516727   13.092545   12.568683
 H  -40.001352   17.771431   14.134434
 H  -42.055437   18.638695   13.087380
 H  -39.275083   15.437517   13.683653
 H  -43.396839   17.190263   11.588278
 H  -43.074059   12.920873   10.079915
 H  -41.114530   12.016930   11.045897
