37 
3nyn_ligand_ani-2x.xyz
 N    3.007473   -2.441300    1.610890
 C    1.738304   -2.798890    1.681707
 N    0.687051   -2.202626    1.104078
 C    1.021077   -1.139951    0.366796
 C    2.310234   -0.630700    0.189896
 C    3.327443   -1.352369    0.877593
 N    4.614473   -1.001363    0.826450
 C    2.184538    0.516758   -0.687295
 C    0.846399    0.628143   -0.971029
 N    0.135922   -0.361902   -0.340706
 C   -1.278359   -0.622755   -0.493388
 C    3.287758    1.393742   -1.159733
 N    2.966841    2.301453   -2.124693
 O    4.427084    1.340096   -0.700414
 C   -2.039120   -0.650601    0.836235
 O   -2.084856   -1.930465    1.404545
 C   -3.436189   -0.212958    0.404575
 O   -4.140399   -1.315157   -0.125076
 C   -3.149250    0.764264   -0.738368
 O   -1.849856    0.430307   -1.238574
 C   -3.155866    2.225416   -0.327474
 O   -2.261247    2.388066    0.754853
 H    1.514420   -3.670552    2.287264
 H    5.275958   -1.531440    1.369574
 H    4.870684   -0.144163    0.344736
 H    0.290415    1.352044   -1.552088
 H   -1.417927   -1.576221   -1.023698
 H    3.745115    2.801641   -2.529413
 H    2.148237    2.176713   -2.698642
 H   -1.591693    0.088803    1.510959
 H   -1.161467   -2.261244    1.443423
 H   -3.995871    0.251972    1.231282
 H   -3.839362   -2.087521    0.379289
 H   -3.878765    0.605936   -1.541303
 H   -2.862681    2.833740   -1.194793
 H   -4.182982    2.506383   -0.043697
 H   -2.073634    3.327003    0.865935
