58 
3o56_ligand_aiqm1.xyz
 C   41.125363   46.137000   63.239034
 C   42.019726   47.328023   62.934015
 N   43.414631   46.929005   62.826283
 N   43.864991   46.308894   61.711009
 C   45.132668   46.013665   61.938638
 C   45.530433   46.432869   63.240478
 C   46.694622   46.400618   64.047992
 N   47.853729   45.820552   63.710501
 C   48.207150   45.243348   62.420666
 C   49.408923   44.330186   62.625872
 C   49.955135   43.835213   61.294807
 O   50.278533   44.916605   60.436132
 C   49.122474   45.680067   60.136193
 C   48.546731   46.321403   61.388707
 C   46.544345   47.018420   65.327083
 C   45.305727   47.565758   65.724538
 N   44.208517   47.584227   64.992775
 C   44.370077   47.019997   63.771740
 C   47.663509   47.106277   66.227657
 O   47.490316   47.621546   67.451207
 N   48.744986   47.597205   68.088730
 C   49.535028   47.077142   67.188596
 C   50.991193   46.870145   67.456457
 N   48.909276   46.753607   66.008907
 N   52.021474   46.039558   65.387081
 C   51.615932   45.736834   66.638022
 C   51.924023   47.333584   64.716129
 C   52.743220   45.040914   64.597605
 O   51.761676   44.622803   67.117201
 C   52.360582   47.008252   63.286324
 C   53.362813   45.867640   63.473756
 H   41.219009   45.378148   62.462230
 H   41.388742   45.691492   64.198656
 H   40.084539   46.460404   63.282153
 H   41.964608   48.079828   63.718924
 H   41.742445   47.785734   61.984174
 H   45.694506   45.524879   61.158565
 H   48.613471   45.915182   64.376846
 H   47.368585   44.643865   62.057166
 H   49.126071   43.480750   63.249445
 H   50.184171   44.892125   63.150923
 H   49.221168   43.182729   60.804288
 H   50.875944   43.275518   61.439825
 H   48.366600   45.036600   59.665334
 H   49.431923   46.432985   59.414782
 H   49.286469   47.002687   61.822146
 H   47.660799   46.910044   61.143420
 H   45.239683   48.010457   66.711909
 H   51.107750   46.603744   68.503689
 H   51.523215   47.808175   67.275614
 H   52.597815   48.064053   65.177743
 H   50.907297   47.726151   64.770984
 H   52.050006   44.281548   64.219260
 H   53.472190   44.533221   65.227071
 H   52.793720   47.873751   62.786379
 H   51.510235   46.663904   62.695455
 H   53.514892   45.284443   62.567832
 H   54.327443   46.265325   63.795354
