58 
3o56_ligand_xtb.xyz
 C   41.190089   45.983985   63.795166
 C   41.893884   47.038591   62.947310
 N   43.292169   46.736963   62.802828
 N   43.791161   46.245255   61.663919
 C   45.072828   46.040792   61.845063
 C   45.463485   46.403737   63.157907
 C   46.633596   46.442907   63.951011
 N   47.837819   45.986000   63.596466
 C   48.246393   45.383934   62.354495
 C   49.366933   44.383241   62.650421
 C   49.984379   43.873239   61.347117
 O   50.455460   44.930474   60.545013
 C   49.410289   45.793159   60.163206
 C   48.754862   46.455023   61.376065
 C   46.452003   47.002304   65.246377
 C   45.177141   47.411984   65.683252
 N   44.079683   47.346777   64.974553
 C   44.251039   46.860217   63.739907
 C   47.563889   47.165110   66.134446
 O   47.386035   47.586833   67.393489
 N   48.621189   47.659102   67.968187
 C   49.457609   47.289370   67.041605
 C   50.925303   47.246636   67.248420
 N   48.840024   46.968919   65.870914
 N   51.948158   46.084385   65.351739
 C   51.545463   45.993150   66.632600
 C   51.879907   47.241776   64.478624
 C   52.697410   44.994261   64.744436
 O   51.681523   44.969588   67.273855
 C   52.491530   46.761311   63.159726
 C   53.455549   45.661874   63.603224
 H   41.284253   45.003343   63.334818
 H   41.635143   45.954760   64.786329
 H   40.135862   46.227878   63.889424
 H   41.803819   48.018162   63.424121
 H   41.473066   47.074861   61.940705
 H   45.657234   45.667437   61.027986
 H   48.572293   46.159808   64.283660
 H   47.397133   44.852686   61.913986
 H   48.979984   43.544221   63.229359
 H   50.134689   44.883880   63.241258
 H   49.239480   43.284619   60.789018
 H   50.851307   43.241568   61.550585
 H   48.653439   45.233073   59.591866
 H   49.862434   46.542102   59.510255
 H   49.491374   47.077821   61.887982
 H   47.931048   47.092346   61.053357
 H   45.074359   47.817491   66.679959
 H   51.104228   47.222500   68.324058
 H   51.375758   48.147587   66.828840
 H   52.476548   48.066238   64.890254
 H   50.846566   47.581733   64.368772
 H   52.011735   44.223372   64.375118
 H   53.342394   44.535536   65.496319
 H   52.992501   47.568362   62.628795
 H   51.732753   46.339801   62.501072
 H   53.691887   44.967602   62.800545
 H   54.383011   46.099412   63.974519
