24 
3oay_ligand_ani-2x.xyz
 C    2.319114   -0.543186    0.069054
 C    0.911944   -0.011199    0.305777
 C   -0.174361   -1.019051   -0.042589
 C   -1.546805   -0.372071    0.124719
 C   -1.631102    0.908208   -0.692665
 C   -0.459353    1.811748   -0.342814
 O    3.250571    0.368156    0.623500
 O    0.778413    0.297710    1.672130
 O   -0.092962   -2.181869    0.757926
 O   -2.545395   -1.257726   -0.346604
 O   -1.571121    0.601811   -2.067359
 O    0.785563    1.139082   -0.503463
 H    2.496968   -0.712381   -1.001865
 H    2.445684   -1.488726    0.602450
 H   -0.060845   -1.334124   -1.084645
 H   -1.707990   -0.136479    1.188968
 H   -2.570712    1.430004   -0.444381
 H   -0.560734    2.172751    0.688966
 H   -0.433630    2.666263   -1.023006
 H    3.164169    1.184842    0.109962
 H    1.647320    0.644905    1.946546
 H    0.002993   -1.875695    1.672961
 H   -2.284739   -2.136347   -0.030283
 H   -2.163192   -0.157025   -2.183382
