90 
3ob0_ligand_ani-2x.xyz
 C    3.418753   -0.122430   -2.912877
 O    2.923123   -1.341664   -2.415267
 C    4.701654   -0.425202   -3.687324
 O    5.054412    0.746565   -4.387237
 C    5.830190   -0.806169   -2.734794
 O    7.019195   -0.856826   -3.501174
 C    5.965121    0.239104   -1.634461
 O    7.003681   -0.198062   -0.784613
 C    4.617973    0.383807   -0.925171
 O    3.652425    0.810189   -1.886716
 C    4.587160    1.378923    0.229195
 O    5.399719    0.791864    1.259552
 C   -3.699748    1.212658    3.315161
 C   -3.681370    0.207623    2.162980
 C   -5.100374    0.012143    1.632014
 C   -6.011087   -0.391987    2.793695
 O   -5.978468    0.556251    3.829016
 C   -4.671511    0.748898    4.391647
 C   -4.856379    1.756148    5.517887
 O   -2.801107    0.745412    1.183235
 O   -5.515868    1.241909    1.062180
 C   -2.661612    0.942649   -2.318570
 C   -1.674102    1.597391   -1.363930
 C   -1.089172    0.544642   -0.433410
 C   -2.231536   -0.174412    0.286613
 O   -3.173065   -0.706781   -0.604559
 C   -3.757545    0.236007   -1.510808
 C   -4.686373   -0.592600   -2.385666
 O   -3.169610    1.987544   -3.119232
 O   -0.644316    2.236535   -2.084439
 O   -5.281659    0.262710   -3.357266
 O   -0.378269   -0.454227   -1.151979
 O   -5.739852    1.265146    6.497717
 O   -2.419998    1.321120    3.906879
 C    2.077244   -2.521115    0.062639
 C    1.378541   -2.709328   -1.280337
 C    1.522058   -1.432989   -2.105851
 C    1.003244   -0.238137   -1.289919
 O    1.649402   -0.141678   -0.042355
 C    1.544976   -1.296487    0.797757
 C    2.331289   -0.976324    2.065958
 O    1.892569   -3.663523    0.874592
 O    1.919164   -3.839027   -1.939474
 O    2.080067   -1.906829    3.090671
 O   -5.584537   -1.655892    3.222705
 C    5.099292    2.763337   -0.132873
 H    2.679098    0.342319   -3.577573
 H    4.508337   -1.261270   -4.377031
 H    5.976186    0.609210   -4.653392
 H    5.626743   -1.786368   -2.275156
 H    7.750662   -0.854843   -2.865355
 H    6.219453    1.198628   -2.115113
 H    6.782480    0.096100    0.115419
 H    4.339184   -0.595496   -0.508167
 H    3.545591    1.425141    0.575146
 H    5.572722    1.470225    1.924950
 H   -4.045041    2.179556    2.918914
 H   -3.289902   -0.749923    2.533119
 H   -5.108593   -0.793019    0.885615
 H   -7.058981   -0.434347    2.458028
 H   -4.310340   -0.201708    4.811923
 H   -5.215509    2.708095    5.090291
 H   -3.896246    1.945671    6.004992
 H   -6.457950    1.176931    0.859745
 H   -2.125164    0.196062   -2.927756
 H   -2.220774    2.331336   -0.751619
 H   -0.432532    1.026517    0.303571
 H   -1.832673   -1.035263    0.844815
 H   -4.338356    0.988477   -0.959308
 H   -4.090934   -1.384380   -2.860944
 H   -5.456853   -1.063694   -1.759255
 H   -3.976865    1.651043   -3.543392
 H   -1.083089    2.712137   -2.806430
 H   -5.667359   -0.274410   -4.057880
 H   -6.550688    1.027315    6.026417
 H   -1.819572    1.593986    3.200437
 H    3.153478   -2.376381   -0.132657
 H    0.320376   -2.918420   -1.101912
 H    0.945938   -1.528243   -3.039233
 H    1.178793    0.708649   -1.805852
 H    0.494101   -1.481554    1.071364
 H    2.013245    0.003233    2.436763
 H    3.409522   -0.896667    1.827230
 H    2.090546   -4.430095    0.317375
 H    2.761541   -3.540547   -2.315145
 H    2.144641   -2.785609    2.686763
 H   -6.091069   -1.878377    4.015852
 H    6.163288    2.723400   -0.398147
 H    4.541090    3.168365   -0.981157
 H    4.987076    3.451037    0.712652
