48 
3ocg_ligand_ani-2x.xyz
 N   35.645900   -4.386963   18.526111
 N   36.943604   -4.726515   18.755669
 C   37.253594   -4.155524   19.901107
 C   36.176003   -3.405676   20.442734
 C   35.161486   -3.564889   19.502538
 N   33.887524   -3.061663   19.511760
 C   36.031526   -2.570695   21.648392
 O   35.009277   -1.917531   21.858491
 N   37.112009   -2.578587   22.485339
 C   37.318317   -1.831138   23.669321
 C   38.640559   -1.697036   24.144629
 C   38.841684   -0.991300   25.326586
 C   37.784416   -0.414180   26.021143
 C   36.486973   -0.542899   25.531409
 C   36.256014   -1.265379   24.363710
 C   35.299896    0.043756   26.248245
 O   34.209766   -0.481414   26.240004
 N   35.573332    1.242497   26.890069
 C   34.666301    2.007915   27.614200
 N   33.499469    1.547956   28.002053
 O   32.921510    2.579177   28.705365
 C   33.747044    3.629544   28.725652
 C   34.886475    3.349462   28.052094
 C   39.813675   -2.290448   23.406467
 C   34.979924   -4.877274   17.367525
 C   33.626217   -5.214945   17.402118
 C   33.011558   -5.690967   16.249266
 C   33.733540   -5.827450   15.068323
 C   35.086908   -5.501080   15.047506
 C   35.716637   -5.038489   16.196124
 H   38.258101   -4.301843   20.281571
 H   33.534436   -2.749798   18.615084
 H   33.768247   -2.390731   20.265461
 H   37.882833   -3.163103   22.205860
 H   39.855037   -0.878564   25.708242
 H   37.972131    0.101010   26.959670
 H   35.248147   -1.392203   23.988141
 H   36.456575    1.678604   26.680558
 H   33.381950    4.497407   29.258028
 H   35.745986    3.985315   27.890435
 H   39.780398   -3.387793   23.379243
 H   39.874205   -1.930559   22.371336
 H   40.748891   -2.013295   23.902055
 H   33.069197   -5.109613   18.327245
 H   31.955916   -5.948281   16.276611
 H   33.246133   -6.193050   14.168744
 H   35.662146   -5.614432   14.132035
 H   36.776334   -4.802734   16.196633
