21 
3odk_ligand_aiqm1.xyz
 C   38.990461  -19.125139   11.910619
 C   39.281010  -20.272937   12.633646
 C   39.856155  -20.143663   13.893801
 C   40.115438  -18.864799   14.374941
 N   39.843131  -17.746908   13.694283
 C   39.288863  -17.884910   12.480847
 C   39.000391  -16.638441   11.755438
 C   39.239074  -15.317915   12.188309
 C   38.790088  -14.533261   11.141327
 C   38.710384  -13.095592   10.862990
 O   38.260406  -12.644820    9.837551
 O   39.188252  -12.341498   11.864242
 N   38.331787  -15.387614   10.190732
 N   38.445812  -16.661811   10.533263
 H   38.543880  -19.164128   10.927772
 H   39.063662  -21.250439   12.223561
 H   40.100214  -21.009396   14.494134
 H   40.562679  -18.725055   15.352035
 H   39.672629  -15.010598   13.123228
 H   39.089496  -11.422917   11.580568
 H   37.939187  -15.119160    9.305713
