21 
3odk_ligand_xtb.xyz
 C   38.987555  -19.133134   11.912687
 C   39.288558  -20.261756   12.651668
 C   39.867556  -20.108500   13.903186
 C   40.117697  -18.820693   14.354497
 N   39.835552  -17.735991   13.659838
 C   39.279845  -17.881523   12.458632
 C   38.985291  -16.659511   11.727045
 C   39.222412  -15.337616   12.148238
 C   38.769627  -14.551197   11.103866
 C   38.717689  -13.109595   10.887001
 O   38.275336  -12.596475    9.885996
 O   39.211195  -12.407689   11.912202
 N   38.306529  -15.410301   10.156572
 N   38.428721  -16.667641   10.514143
 H   38.537388  -19.189691   10.935111
 H   39.076426  -21.246888   12.261033
 H   40.118002  -20.963357   14.511943
 H   40.567890  -18.646065   15.323561
 H   39.657190  -15.025630   13.072879
 H   39.155452  -11.457852   11.722347
 H   37.907089  -15.149895    9.266555
