51 
3oe4_ligand_ani-2x.xyz
 C   -0.929744   -3.285254   -0.952227
 C   -0.691313   -1.838903   -1.359162
 C   -2.120445   -1.280375   -1.410250
 O   -2.895098   -2.073517   -0.529468
 C   -2.090158   -3.121746    0.034435
 C   -1.585694   -2.726949    1.400165
 N   -2.170166    0.102209   -0.972945
 O   -1.381824   -4.039753   -2.046685
 O   -0.029656   -1.726161   -2.585094
 C   -2.068672   -1.683521    2.071933
 C   -3.119453    0.661436   -0.139039
 N   -2.957989    1.938400    0.071077
 C   -1.269357   -0.896975    3.078014
 N   -0.314100    0.006117    2.436128
 C    0.950499   -0.426097    2.180284
 C    1.834485    0.468257    1.384497
 C    3.003177   -0.059343    0.819530
 C    3.837685    0.740674    0.016506
 C    3.534041    2.071288   -0.199270
 C    2.393452    2.588566    0.413300
 C    1.546646    1.825763    1.193384
 N    2.058026    4.003940    0.195101
 O    3.417765   -1.337963    0.989760
 O    4.947398    0.196861   -0.539204
 O    1.347260   -1.525374    2.590286
 O    1.154902    4.464566    0.868981
 O    2.701726    4.619763   -0.635843
 C   -1.335564    1.135491   -1.331126
 C   -1.843631    2.274543   -0.677663
 C   -1.130801    3.457876   -0.895206
 N   -0.072302    3.462591   -1.702967
 C    0.315616    2.307308   -2.258111
 N   -0.264312    1.103535   -2.120878
 H   -0.043305   -3.744109   -0.485310
 H   -0.150337   -1.321050   -0.552293
 H   -2.535313   -1.358566   -2.422777
 H   -2.698493   -4.031009    0.073261
 H   -0.758651   -3.327197    1.785598
 H   -0.870257   -3.739286   -2.812496
 H    0.113939   -0.765756   -2.713698
 H   -3.046311   -1.285339    1.811699
 H   -3.908374    0.043355    0.266089
 H   -1.935562   -0.300004    3.707215
 H   -0.686177   -1.564731    3.717286
 H   -0.710368    0.699869    1.811296
 H    4.171853    2.692695   -0.816517
 H    0.709665    2.308552    1.681478
 H    2.806087   -1.740117    1.649401
 H    4.983402   -0.729998   -0.258041
 H   -1.413731    4.397327   -0.429213
 H    1.200135    2.358513   -2.884620
