51 
3oe4_ligand_xtb.xyz
 C   -1.901333   -3.803332   -0.743905
 C   -1.185797   -2.635728   -1.438277
 C   -2.281836   -1.540879   -1.390098
 O   -3.138412   -1.847048   -0.331400
 C   -2.701976   -3.039784    0.323186
 C   -1.832328   -2.748959    1.513646
 N   -1.688981   -0.228698   -1.222425
 O   -2.760535   -4.476214   -1.616244
 O   -0.789982   -2.977583   -2.728513
 C   -1.710328   -1.551507    2.057040
 C   -2.136853    0.815194   -0.461218
 N   -1.395608    1.876826   -0.515027
 C   -0.745648   -1.194554    3.144914
 N    0.032024   -0.029751    2.750918
 C    0.724332    0.010206    1.605017
 C    1.476619    1.255914    1.311268
 C    2.467441    1.204209    0.316214
 C    3.236075    2.354008    0.006952
 C    2.998368    3.534415    0.680373
 C    1.994647    3.577116    1.646369
 C    1.236990    2.463444    1.960571
 N    1.735971    4.810172    2.338917
 O    2.745944    0.096349   -0.385037
 O    4.182491    2.286996   -0.941628
 O    0.768536   -0.958423    0.838044
 O    0.914487    4.788247    3.233475
 O    2.355474    5.792858    1.996878
 C   -0.559615    0.224220   -1.831486
 C   -0.384088    1.561821   -1.384188
 C    0.703765    2.241650   -1.911906
 N    1.511687    1.620824   -2.756793
 C    1.256010    0.367112   -3.092521
 N    0.246009   -0.389045   -2.689855
 H   -1.183918   -4.504066   -0.296089
 H   -0.339175   -2.312628   -0.817201
 H   -2.854084   -1.539749   -2.333983
 H   -3.602319   -3.595028    0.604214
 H   -1.265364   -3.590870    1.883439
 H   -2.328148   -4.496194   -2.481725
 H   -0.268350   -2.228470   -3.073683
 H   -2.294839   -0.725708    1.678818
 H   -3.042514    0.738214    0.107501
 H   -1.275678   -0.940771    4.065117
 H   -0.073156   -2.036987    3.337634
 H    0.027269    0.775539    3.353623
 H    3.574868    4.416264    0.451678
 H    0.451303    2.582448    2.689863
 H    2.088463   -0.596809   -0.106338
 H    4.132783    1.420126   -1.372429
 H    0.932276    3.270977   -1.674558
 H    1.947634   -0.095960   -3.782546
