75 
3of8_ligand_aiqm1.xyz
 C   -0.329398    0.916068    1.108726
 O   -1.007971    0.508404    2.034334
 O    1.003396    1.047877    1.149052
 C    1.601657    0.640321    2.384089
 C    3.092989    0.570742    2.197333
 C    3.827272   -0.348368    2.952839
 C    5.210847   -0.446382    2.809908
 C    5.876119    0.369887    1.898776
 C    5.146715    1.282244    1.137644
 C    3.763530    1.384309    1.282953
 N   -0.817079    1.281072   -0.091304
 C   -2.245892    1.377623   -0.336659
 C   -2.811151    0.013720   -0.780189
 O   -3.206667   -0.198742   -1.913351
 C   -2.530555    2.453181   -1.371110
 C   -2.018144    3.805643   -0.941787
 C   -1.148520    4.524525   -1.766462
 C   -2.368760    4.355869    0.296562
 C   -0.640695    5.760453   -1.371387
 C   -1.860545    5.589194    0.693637
 C   -0.993777    6.294490   -0.136412
 N   -2.869374   -0.904380    0.216832
 O   -4.696764   -3.776569    1.078187
 O    2.756926   -0.950365   -1.672245
 O   -6.785582   -2.204353    1.183363
 C   -2.063731   -3.258924    0.235059
 C   -3.199502   -2.283453   -0.085513
 C   -4.506488   -2.676064    0.600393
 C   -5.624896   -1.653972    0.624779
 C   -0.744141   -2.763852   -0.296505
 C    1.647339   -1.621045   -1.225932
 C    4.952838   -0.665525   -2.410327
 C    3.963995   -1.717340   -1.934467
 C    0.296513   -2.462825    0.583206
 C   -0.560380   -2.497689   -1.656441
 C    1.486499   -1.905546    0.126993
 C    0.623650   -1.934404   -2.119162
 C    4.478253   -2.386319   -0.661212
 C    3.697870   -2.759735   -3.018401
 H    1.311452    1.348138    3.165551
 H    1.210829   -0.334923    2.669466
 H    3.316207   -0.996455    3.656926
 H    5.760470   -1.165471    3.402691
 H    6.948214    0.288304    1.779707
 H    5.655528    1.914198    0.418170
 H    3.203756    2.081673    0.672499
 H   -0.164280    1.548219   -0.806864
 H   -2.714725    1.629541    0.615274
 H   -3.606473    2.474182   -1.555499
 H   -2.058461    2.160735   -2.309976
 H   -0.870502    4.109851   -2.728597
 H   -3.042224    3.821529    0.958568
 H    0.030553    6.299450   -2.027224
 H   -2.142161    5.998371    1.655452
 H   -0.599127    7.251190    0.177578
 H   -2.380985   -0.690699    1.078785
 H   -6.540355   -3.101951    1.444217
 H   -2.331936   -4.231691   -0.180656
 H   -1.994201   -3.390061    1.317678
 H   -3.416473   -2.306050   -1.157548
 H   -5.805720   -1.309872   -0.398775
 H   -5.289679   -0.782396    1.200137
 H    4.565473   -0.149633   -3.289522
 H    5.120770    0.061634   -1.614995
 H    5.904584   -1.136612   -2.664570
 H    0.160160   -2.666606    1.640447
 H   -1.355201   -2.716253   -2.360270
 H    2.289365   -1.657842    0.805984
 H    0.759582   -1.712167   -3.171751
 H    3.790984   -3.156435   -0.311143
 H    4.614345   -1.644360    0.132723
 H    5.441773   -2.859460   -0.863424
 H    4.626722   -3.277810   -3.269993
 H    2.973669   -3.502985   -2.679919
 H    3.315646   -2.279893   -3.921635
