75 
3of8_ligand_xtb.xyz
 C   -0.442212    0.849219    1.065835
 O   -1.110609    0.352382    1.951663
 O    0.874504    1.077139    1.138924
 C    1.521016    0.680959    2.346873
 C    2.996726    0.525030    2.109478
 C    3.721486   -0.417989    2.827371
 C    5.084600   -0.551146    2.628903
 C    5.734995    0.257628    1.711722
 C    5.016084    1.199525    0.995458
 C    3.653126    1.332629    1.191737
 N   -0.932681    1.235755   -0.126299
 C   -2.353923    1.365492   -0.393370
 C   -2.932292    0.003153   -0.818035
 O   -3.363935   -0.223751   -1.928540
 C   -2.585604    2.418730   -1.479405
 C   -1.999319    3.739470   -1.070169
 C   -0.760823    4.149229   -1.546680
 C   -2.670603    4.552616   -0.165060
 C   -0.203514    5.345045   -1.127477
 C   -2.116493    5.748257    0.254347
 C   -0.879228    6.146191   -0.224041
 N   -2.923633   -0.897907    0.182135
 O   -4.661242   -3.952269    0.847087
 O    2.910091   -0.823994   -1.376735
 O   -6.634203   -2.314446    1.490736
 C   -1.982180   -3.171090    0.299598
 C   -3.189102   -2.294151   -0.074872
 C   -4.451697   -2.787293    0.605639
 C   -5.485806   -1.737544    0.946177
 C   -0.679126   -2.582474   -0.169160
 C    1.754159   -1.456326   -0.982892
 C    5.055082   -0.613774   -2.288519
 C    3.993852   -1.629534   -1.865384
 C    0.406656   -2.524972    0.694850
 C   -0.529232   -2.066947   -1.451097
 C    1.613249   -1.980368    0.297139
 C    0.666769   -1.501712   -1.850013
 C    4.553823   -2.545468   -0.773011
 C    3.546988   -2.465725   -3.069103
 H    1.340951    1.454857    3.107576
 H    1.072517   -0.251731    2.705094
 H    3.216119   -1.049822    3.544273
 H    5.639344   -1.290494    3.187993
 H    6.798514    0.150959    1.555499
 H    5.519664    1.838453    0.284677
 H    3.087326    2.057057    0.628282
 H   -0.283374    1.604806   -0.802725
 H   -2.842120    1.663628    0.543975
 H   -3.660946    2.505952   -1.640332
 H   -2.137255    2.060988   -2.407591
 H   -0.231793    3.536710   -2.264331
 H   -3.637341    4.246587    0.208761
 H    0.759829    5.651489   -1.508062
 H   -2.650789    6.371975    0.955815
 H   -0.445714    7.079321    0.103570
 H   -2.443447   -0.650933    1.045560
 H   -6.471383   -3.272506    1.534174
 H   -2.133427   -4.163079   -0.132760
 H   -1.955363   -3.286140    1.385360
 H   -3.388909   -2.366015   -1.155579
 H   -5.736264   -1.178845    0.034055
 H   -5.043890   -1.030284    1.662553
 H    4.642672    0.062397   -3.032412
 H    5.363186   -0.031470   -1.425076
 H    5.918581   -1.122057   -2.707546
 H    0.307312   -2.915059    1.698293
 H   -1.351206   -2.096906   -2.150179
 H    2.443999   -1.936373    0.983312
 H    0.766524   -1.085520   -2.841126
 H    3.830314   -3.311247   -0.502270
 H    4.802788   -1.961836    0.110565
 H    5.454437   -3.034729   -1.134553
 H    4.391876   -3.021355   -3.466482
 H    2.771097   -3.171234   -2.777864
 H    3.154405   -1.819947   -3.851015
