47 
3otq_ligand_ani-2x.xyz
 N   75.352383  -11.595018   70.006141
 C   75.234870  -10.863688   68.795240
 C   75.258923  -12.945297   70.244789
 N   75.714847  -10.922133   71.118827
 C   74.302275  -11.171695   67.804680
 C   76.078710   -9.768221   68.619525
 C   75.526518  -13.116546   71.583412
 C   74.931886  -13.949487   69.181615
 C   75.796050  -11.825775   72.087533
 C   74.249556  -10.408248   66.649117
 C   76.037764   -9.010538   67.460976
 C   75.279946  -15.376997   69.585932
 C   76.151653  -11.420657   73.458373
 C   75.118998   -9.331042   66.461116
 C   76.175393  -12.330553   74.513805
 C   76.480166  -10.088981   73.741729
 N   75.005709   -8.603373   65.259815
 C   76.521116  -11.883832   75.779967
 N   76.814716   -9.647652   74.952491
 C   75.767160   -7.550075   64.823294
 C   76.831816  -10.537661   75.946370
 C   75.396048   -7.009177   63.469637
 O   76.702952   -7.072053   65.444221
 C   76.370958   -6.294626   62.775669
 C   74.138599   -7.140114   62.876171
 C   76.066890   -5.782387   61.523167
 N   73.827958   -6.640292   61.680525
 C   74.785040   -5.984592   61.021279
 H   73.606437  -11.994446   67.925055
 H   76.773903   -9.515908   69.414504
 H   75.552709  -14.055050   72.118506
 H   75.452515  -13.684247   68.254073
 H   73.857829  -13.895613   68.961119
 H   73.519025  -10.656113   65.883701
 H   76.706235   -8.170974   67.325421
 H   76.343480  -15.470731   69.825793
 H   74.704259  -15.685260   70.464201
 H   75.052115  -16.072268   68.773033
 H   75.923782  -13.375456   74.347407
 H   76.469583   -9.351524   72.941502
 H   74.352837   -8.990798   64.596714
 H   76.550293  -12.565228   76.624918
 H   77.108210  -10.151871   76.926013
 H   77.345799   -6.156848   63.235236
 H   73.314153   -7.638293   63.388730
 H   76.805094   -5.231170   60.947877
 H   74.506440   -5.594694   60.044084
