28 
3ow6_ligand_xtb.xyz
 C   -0.437427  -11.347914   -2.711870
 C   -1.559593  -11.446634   -3.517160
 C   -2.690086  -12.134303   -3.053477
 C   -2.653870  -12.733318   -1.804282
 C   -1.521766  -12.633653   -1.003763
 C   -0.414597  -11.926517   -1.456349
 O   -1.550860  -13.235980    0.213179
 O   -3.793041  -12.159167   -3.834461
 N   -1.574908  -10.884268   -4.808382
 C   -1.378731   -9.555402   -5.126676
 C   -1.508073   -9.438788   -6.522261
 N   -1.774172  -10.702788   -6.999058
 C   -1.819191  -11.613891   -5.962280
 C   -1.120367   -8.450168   -4.339320
 C   -0.981477   -7.227832   -4.980795
 C   -1.100547   -7.114676   -6.358903
 C   -1.369683   -8.219844   -7.154236
 O   -1.993652  -12.803622   -6.055639
 H    0.427197  -10.817236   -3.080164
 H   -3.506705  -13.280413   -1.430586
 H    0.466177  -11.842100   -0.835507
 H   -0.707359  -13.105662    0.662964
 H   -4.448087  -12.761248   -3.461970
 H   -1.924782  -10.957660   -7.959623
 H   -1.036172   -8.536558   -3.267402
 H   -0.777647   -6.345542   -4.393401
 H   -0.985149   -6.147168   -6.823032
 H   -1.468530   -8.129749   -8.224743
