35 
3owj_ligand_xtb.xyz
 C   23.299525    7.525786   11.327689
 O   23.506054    8.302455   10.224268
 C   23.266643    6.140602   11.134780
 C   23.061270    5.284837   12.195603
 C   22.890181    5.837204   13.454995
 C   22.923006    7.233059   13.670380
 C   23.129617    8.080243   12.585927
 N   22.669686    5.206366   14.655192
 C   22.560086    6.140287   15.647012
 C   22.713840    7.430760   15.082311
 C   22.343268    5.939008   17.010277
 C   22.157006    4.560747   17.578573
 C   22.315360    7.073734   17.807317
 C   22.428303    8.366532   17.252190
 C   22.630449    8.568719   15.886006
 C   22.788129    9.929546   15.288517
 C   22.148724    6.945899   19.303327
 C   22.780942    8.122570   19.968755
 N   22.800653    9.274042   19.461038
 C   22.233607    9.489785   18.203680
 O   21.645344   10.517139   17.956268
 H   23.504333    9.233131   10.477285
 H   23.404981    5.763865   10.134452
 H   23.033880    4.216044   12.046820
 H   23.157996    9.152353   12.706240
 H   23.050375    4.237606   18.114926
 H   21.317672    4.539763   18.271138
 H   21.956789    3.838502   16.791713
 H   22.006675   10.097304   14.548675
 H   22.713182   10.705080   16.042184
 H   23.755925   10.004498   14.793346
 H   21.081038    6.918261   19.552318
 H   22.597650    6.024641   19.675152
 H   23.267098    7.985555   20.928593
 H   22.619712    4.210076   14.775051
