66 
3oy1_ligand_dft.xyz
 C   -5.460566   -3.430577    1.051227
 C   -4.439361   -2.482260    0.786144
 C   -4.708421   -1.410961   -0.109594
 C   -5.991403   -1.320527   -0.709623
 C   -6.958272   -2.252197   -0.434431
 C   -6.690080   -3.319337    0.455205
 C   -3.687264   -0.468592   -0.390989
 C   -2.460738   -0.583763    0.208406
 C   -2.192000   -1.631557    1.123786
 C   -3.157695   -2.561902    1.391960
 N   -1.453497    0.382674   -0.059875
 C   -0.105515    0.184783   -0.302037
 N    0.542680    1.310429   -0.313875
 N   -0.394673    2.273617   -0.063085
 C   -1.659953    1.764864    0.084652
 O   -2.707827    2.350956    0.291407
 C   -0.027402    3.681284   -0.053802
 C   -0.358705    4.350894    1.282796
 C    0.003787    5.833886    1.210534
 O   -0.652009    6.485152    0.144759
 C   -0.302585    5.930442   -1.104175
 C   -0.687153    4.454343   -1.199544
 C    0.543266   -1.104901   -0.583807
 C   -0.102601   -2.124084   -1.292145
 C    0.620856   -3.281577   -1.540454
 N    1.880533   -3.484138   -1.159076
 C    2.496175   -2.501437   -0.482350
 C    1.854447   -1.289257   -0.168859
 N    3.778251   -2.778561   -0.084879
 C    4.746729   -1.777172    0.322968
 C    5.972363   -2.474277    0.918701
 C    7.018393   -1.459283    1.388376
 C    7.423167   -0.505050    0.260779
 C    6.198468    0.188223   -0.342864
 C    5.161292   -0.833268   -0.816999
 H   -5.251628   -4.247496    1.737079
 H   -6.194251   -0.497573   -1.389585
 H   -7.937006   -2.173645   -0.897891
 H   -7.465125   -4.050243    0.665055
 H   -3.885297    0.354802   -1.068426
 H   -1.218489   -1.688484    1.599283
 H   -2.952827   -3.371867    2.086473
 H    1.058569    3.678101   -0.198129
 H    0.193030    3.866523    2.096423
 H   -1.429620    4.243329    1.480502
 H    1.097676    5.947546    1.103100
 H   -0.300987    6.352727    2.122590
 H    0.782756    6.046279   -1.275997
 H   -0.828071    6.518605   -1.860430
 H   -1.774053    4.353355   -1.118227
 H   -0.371493    4.042649   -2.164848
 H   -1.120214   -2.018979   -1.647917
 H    0.160626   -4.100035   -2.090207
 H    2.358720   -0.501525    0.377266
 H    4.144416   -3.617431   -0.515256
 H    4.291344   -1.177961    1.124410
 H    6.417733   -3.123837    0.149713
 H    5.657637   -3.121535    1.744608
 H    7.896928   -1.985351    1.778035
 H    6.604152   -0.877290    2.223537
 H    7.938739   -1.074006   -0.525715
 H    8.137241    0.238120    0.633262
 H    6.496311    0.834266   -1.176054
 H    5.742297    0.842401    0.413888
 H    4.278653   -0.327065   -1.223714
 H    5.582493   -1.441839   -1.629792
