46 
3oy8_ligand_ani-2x.xyz
 C   -0.546460   -0.228846    0.588412
 C   -1.822206    0.562497    0.854262
 C   -3.023162   -0.372384    0.806360
 C   -3.076202   -1.102811   -0.534095
 C   -1.708666   -1.719200   -0.859682
 C   -1.624813   -2.290668   -2.274268
 O   -1.838057    1.178180    2.127215
 O   -4.225360    0.368186    0.918392
 O   -3.434771   -0.179279   -1.547176
 O   -0.649913   -0.785927   -0.704100
 O   -1.798188   -1.336102   -3.307695
 C    1.078804    0.261155   -2.564238
 C    1.714296    1.385152   -1.759131
 C    2.599487    0.865802   -0.636818
 C    1.799802    0.020107    0.350474
 C    2.538799   -0.295325    1.652096
 C    2.560178    0.835703    2.675744
 O    1.568906   -0.841564   -2.680309
 O   -0.045905    0.657506   -3.148686
 O    2.549730    2.165495   -2.598749
 O    3.208796    1.973705   -0.012242
 O    0.545095    0.646985    0.613867
 O    1.868091   -1.404161    2.224007
 O    3.131867    0.258208    3.850266
 H   -0.404860   -1.024712    1.335823
 H   -1.929765    1.302831    0.047902
 H   -2.942353   -1.104171    1.625586
 H   -3.821601   -1.911474   -0.486336
 H   -1.545252   -2.552810   -0.154651
 H   -2.374046   -3.090153   -2.377372
 H   -0.633047   -2.726743   -2.416891
 H   -1.134456    1.839284    2.125941
 H   -4.082142    1.017327    1.623646
 H   -4.124791    0.384803   -1.162511
 H   -2.557325   -0.779870   -3.048836
 H    0.917110    1.994255   -1.318981
 H    3.364506    0.212241   -1.085076
 H    1.619111   -0.946422   -0.133041
 H    3.578546   -0.572389    1.411289
 H    3.149092    1.684550    2.314729
 H    1.526597    1.155461    2.860293
 H   -0.545630   -0.154605   -3.423314
 H    1.986543    2.731017   -3.141669
 H    3.510163    2.543505   -0.735923
 H    2.167943   -1.435725    3.146580
 H    2.905209    0.811087    4.606103
