42 
3ozj_ligand_aiqm1.xyz
 C    2.812952    2.465029    0.866779
 C    3.517317   -1.526010   -1.900016
 C   -3.667462   -0.134746   -1.008077
 C   -0.663066   -0.967995    2.111038
 O    3.654053   -0.553229    0.296260
 O    1.303132   -2.956165    0.871810
 O    1.042178    4.837154    0.758469
 C   -0.825357   -3.220718   -0.220479
 C   -1.727598   -2.330890   -0.665824
 C   -1.964520    1.538485   -0.312362
 O    1.680064   -0.573171   -0.786953
 O   -0.615794    3.353614    0.449870
 C    3.001626   -0.839326   -0.671478
 C    1.518553    2.465249    0.530407
 C    0.261156   -2.497930    0.470960
 C    0.691398    3.702433    0.605057
 C   -2.440532    0.096163   -0.124883
 C   -0.756211    1.919805    0.512376
 C   -1.314512   -0.893612   -0.422669
 C    0.993669   -0.073999    0.388985
 C    0.600261    1.372473    0.044189
 C   -0.189335   -1.025556    0.642478
 H    3.427665    1.578433    0.832813
 H    3.265676    3.392424    1.193333
 H    3.140123   -1.042673   -2.799269
 H    3.157770   -2.556036   -1.889789
 H    4.602778   -1.522051   -1.878027
 H   -4.134583   -1.101763   -0.821997
 H   -3.400332   -0.083179   -2.067059
 H   -4.415627    0.635085   -0.817723
 H    0.161793   -1.269805    2.760173
 H   -1.500166   -1.653075    2.277289
 H   -0.980143    0.020150    2.434291
 H   -0.855128   -4.292947   -0.333602
 H   -2.626394   -2.587083   -1.212964
 H   -2.773574    2.221733   -0.046317
 H   -1.737671    1.717755   -1.370415
 H   -2.750440   -0.028927    0.914782
 H   -0.928449    1.676957    1.569667
 H   -0.836396   -0.577113   -1.364270
 H    1.680352   -0.100000    1.236198
 H    0.591077    1.414958   -1.052752
