42 
3ozj_ligand_ani-2x.xyz
 C    2.812924    2.578305    0.488160
 C    3.645104   -1.708723   -1.541502
 C   -3.743827   -0.089406   -0.888092
 C   -0.621821   -1.109237    2.009927
 O    3.656230   -0.625069    0.600939
 O    1.362849   -2.964235    0.585481
 O    1.026769    4.884236    0.699748
 C   -0.785847   -3.172391   -0.499249
 C   -1.743487   -2.282895   -0.782123
 C   -2.042374    1.577605   -0.156074
 O    1.831587   -0.441970   -0.726809
 O   -0.645955    3.383113    0.545003
 C    3.069999   -0.883603   -0.424797
 C    1.490825    2.525960    0.354400
 C    0.313327   -2.480522    0.223774
 C    0.656088    3.750230    0.556020
 C   -2.479815    0.110523   -0.046680
 C   -0.782638    1.949833    0.596411
 C   -1.352037   -0.863398   -0.460584
 C    0.988188   -0.012947    0.371757
 C    0.533122    1.408595    0.003259
 C   -0.161208   -1.034584    0.550766
 H    3.450388    1.700243    0.397581
 H    3.291364    3.526389    0.717673
 H    3.494367   -1.212928   -2.503331
 H    3.134799   -2.675960   -1.564085
 H    4.707215   -1.865325   -1.352890
 H   -4.180802   -1.081244   -0.737430
 H   -3.536074    0.033617   -1.959315
 H   -4.505529    0.649927   -0.615249
 H    0.204039   -1.473521    2.630385
 H   -1.448947   -1.820749    2.102416
 H   -0.950934   -0.145721    2.407538
 H   -0.756907   -4.230219   -0.734325
 H   -2.676293   -2.509273   -1.290505
 H   -2.850698    2.223353    0.207656
 H   -1.898860    1.838901   -1.214679
 H   -2.746328   -0.097668    0.998573
 H   -0.865675    1.694760    1.659118
 H   -0.919477   -0.460667   -1.394785
 H    1.609978    0.007047    1.272176
 H    0.416672    1.399521   -1.085956
