50 
3ozt_ligand_xtb.xyz
 C   -3.849762   -1.632011   -0.004525
 C   -2.555010   -1.436238   -0.811031
 C   -2.806295   -0.044554   -1.454353
 O   -3.761101    0.613267   -0.671181
 C   -4.119763   -0.187352    0.453812
 C   -3.312900    0.108781    1.686030
 N   -1.584872    0.752245   -1.563031
 O   -4.820601   -2.125103   -0.897559
 O   -2.303251   -2.432960   -1.742764
 C   -2.447631    1.098619    1.811994
 C   -1.505013    1.234385    2.970269
 N   -0.144011    1.061417    2.490438
 C    0.219922   -0.075345    1.862912
 C    1.586805   -0.102684    1.258149
 C    2.241921    1.028447    0.758332
 C    3.418606    0.876334   -0.014107
 C    4.003490   -0.370050   -0.131064
 C    3.387437   -1.475726    0.448468
 C    2.168155   -1.354139    1.091233
 N    4.006036   -2.766946    0.330925
 O    1.751690    2.269576    0.986154
 O    3.975669    1.951609   -0.617148
 O   -0.515362   -1.045494    1.776194
 O    3.464499   -3.705292    0.876814
 O    5.035618   -2.844000   -0.307013
 C   -0.401316    0.168434   -1.871066
 C    0.741939    0.886334   -1.970970
 C    0.761749    2.308977   -1.734893
 C   -1.646122    2.100705   -1.442797
 C   -0.543011    2.878745   -1.519395
 O    1.804470    2.988065   -1.692289
 H   -3.702199   -2.315056    0.837607
 H   -1.707259   -1.386806   -0.118087
 H   -3.213111   -0.176938   -2.471991
 H   -5.187391   -0.007595    0.630950
 H   -3.449812   -0.602049    2.487877
 H   -5.645142   -2.281523   -0.426811
 H   -3.156400   -2.752691   -2.071168
 H   -2.300456    1.810155    1.011878
 H   -1.578577    2.218938    3.434142
 H   -1.719165    0.461179    3.713514
 H    0.448318    1.871914    2.406138
 H    4.926203   -0.482018   -0.678224
 H    1.657848   -2.226732    1.469040
 H    2.263583    2.919407    0.470894
 H    3.275855    2.445788   -1.130950
 H   -0.420684   -0.898114   -2.033155
 H    1.665163    0.387061   -2.220478
 H   -2.633308    2.503920   -1.273350
 H   -0.619475    3.948279   -1.405200
