16 
3p1d_ligand_xtb.xyz
 C  -19.568109   25.324135   -1.981411
 O  -21.116547   27.205536   -0.487510
 C  -17.621672   27.738224    0.066378
 C  -19.042970   27.954123    0.583384
 C  -17.708623   26.403094   -0.681820
 C  -19.913850   27.143199   -0.366753
 N  -19.099288   26.315792   -1.056008
 H  -19.344805   24.316686   -1.619021
 H  -20.646516   25.444186   -2.073248
 H  -19.101165   25.460757   -2.959916
 H  -16.880972   27.713078    0.863037
 H  -17.353440   28.534778   -0.628169
 H  -19.349877   28.997726    0.596807
 H  -19.177253   27.548448    1.588089
 H  -17.433061   25.557931   -0.035518
 H  -17.071252   26.375809   -1.570321
