16 
3p1d_ligand_ani-2x.xyz
 C  -19.575980   25.327712   -1.993177
 O  -21.123812   27.162272   -0.453869
 C  -17.620210   27.747667    0.065995
 C  -19.045427   27.948257    0.588865
 C  -17.689009   26.408709   -0.681568
 C  -19.910089   27.134571   -0.365044
 N  -19.075357   26.344161   -1.104867
 H  -19.402176   24.319318   -1.593933
 H  -20.651140   25.485549   -2.097745
 H  -19.099534   25.404106   -2.977020
 H  -16.869200   27.734999    0.858844
 H  -17.356867   28.546643   -0.633508
 H  -19.374560   28.989215    0.603675
 H  -19.183748   27.542137    1.597336
 H  -17.431951   25.561805   -0.027166
 H  -17.020340   26.376380   -1.548815
