16 
3p1d_ligand_aiqm1.xyz
 C  -19.575887   25.328017   -1.986075
 O  -21.114192   27.170823   -0.460726
 C  -17.622912   27.761586    0.051509
 C  -19.041306   27.927512    0.600423
 C  -17.692451   26.426178   -0.696229
 C  -19.901591   27.142245   -0.376126
 N  -19.069573   26.388675   -1.149216
 H  -19.464866   24.351899   -1.501947
 H  -20.631324   25.520512   -2.158948
 H  -19.042497   25.308603   -2.938397
 H  -16.860594   27.755833    0.826678
 H  -17.391142   28.562423   -0.649892
 H  -19.386384   28.956788    0.669208
 H  -19.155583   27.471873    1.586900
 H  -17.473036   25.576589   -0.036563
 H  -17.006065   26.383944   -1.542600
