40 
3p2h_ligand_ani-2x.xyz
 C    0.312841   82.013840   52.050547
 O   -0.095879   83.151837   51.895661
 C   -0.509214   80.839322   51.764959
 C   -0.051202   79.578596   51.933992
 C    1.359523   79.271426   52.338539
 C    2.294412   80.445421   52.039556
 C    1.719580   81.744833   52.585708
 N   -0.918636   78.501689   51.718283
 C   -0.845512   77.232646   52.241893
 O    0.046719   76.862988   52.984692
 C   -1.952756   76.291930   51.793329
 C   -3.374560   76.859277   51.782709
 C   -4.411698   75.785495   51.458628
 C   -5.841185   76.322015   51.440594
 C   -6.887051   75.251246   51.136812
 C   -8.317061   75.789255   51.114740
 C   -9.351563   74.708342   50.810195
 H   -1.526082   81.050296   51.444005
 H    1.688109   78.358654   51.833438
 H    1.361251   79.034632   53.409432
 H    2.440290   80.533792   50.954217
 H    3.281492   80.251195   52.473008
 H    1.649579   81.694247   53.682627
 H    2.339556   82.612334   52.342344
 H   -1.747014   78.723157   51.186782
 H   -1.895069   75.432054   52.464267
 H   -1.698372   75.923814   50.789013
 H   -3.463780   77.666806   51.042706
 H   -3.598896   77.304445   52.761233
 H   -4.336582   74.971497   52.194673
 H   -4.177511   75.337840   50.481405
 H   -5.917759   77.126359   50.693848
 H   -6.065731   76.786974   52.412410
 H   -6.813707   74.447414   51.884573
 H   -6.659653   74.785122   50.166342
 H   -8.388765   76.590593   50.366257
 H   -8.542078   76.253331   52.085056
 H   -9.163346   74.249340   49.832415
 H   -9.318600   73.910529   51.561576
 H  -10.367592   75.116319   50.798935
