40 
3p2h_ligand_xtb.xyz
 C    0.561052   81.883205   51.316941
 O    0.388036   82.893645   50.665224
 C   -0.156451   80.648529   51.044548
 C    0.012321   79.512673   51.750458
 C    1.032738   79.399709   52.834767
 C    2.121432   80.454123   52.660650
 C    1.502345   81.835736   52.504088
 N   -0.781548   78.417729   51.453760
 C   -0.866810   77.197935   52.081331
 O   -0.214467   76.881938   53.046956
 C   -1.907156   76.298004   51.444936
 C   -3.315234   76.719922   51.881913
 C   -4.386269   75.823230   51.265442
 C   -5.790662   76.232740   51.702690
 C   -6.863961   75.336051   51.090592
 C   -8.269453   75.742382   51.527022
 C   -9.335236   74.842867   50.913525
 H   -0.879374   80.696366   50.240716
 H    1.463489   78.398547   52.834632
 H    0.531882   79.526246   53.800019
 H    2.710570   80.221476   51.770486
 H    2.791068   80.435936   53.521703
 H    0.915086   82.084742   53.393445
 H    2.264545   82.606459   52.382695
 H   -1.418316   78.566072   50.680617
 H   -1.717272   75.276747   51.776445
 H   -1.826429   76.334720   50.356497
 H   -3.502523   77.756887   51.590484
 H   -3.378441   76.666480   52.970536
 H   -4.203824   74.787970   51.560800
 H   -4.318479   75.872844   50.175829
 H   -5.974875   77.268653   51.407555
 H   -5.857577   76.183885   52.791885
 H   -6.680641   74.300475   51.386443
 H   -6.797511   75.384418   50.000988
 H   -8.453833   76.777626   51.230857
 H   -8.336429   75.693672   52.616228
 H   -9.297634   74.892597   49.827406
 H   -9.180330   73.808725   51.213506
 H  -10.327331   75.148937   51.236785
