33 
3p3u_ligand_xtb.xyz
 C    3.164506   -2.177506   -3.425507
 C   -0.871670    0.948191   -0.779999
 C   -1.368205    1.807859   -1.752720
 C   -0.271076    2.843144   -9.733274
 C   -0.494556    0.790467  -10.676880
 C   -0.095983   -0.128417   -1.142535
 C   -1.123789    1.536755   -3.078543
 C   -0.270906    2.322630   -8.449602
 C   -0.506996    0.154806   -9.446804
 C    1.836367   -1.558089   -3.836834
 N   -0.379739    2.100440  -10.821678
 N   -0.497372   -0.940669   -6.756863
 N   -0.303346    1.074001   -5.832724
 O    1.036997   -1.440018   -2.672187
 O   -0.464746   -1.070786   -5.406243
 C   -0.392073    0.942765   -8.303061
 C    0.193952   -0.403709   -2.484883
 C   -0.399476    0.345612   -6.980645
 C   -0.377452    0.417248   -3.469480
 C   -0.338080    0.168006   -4.896703
 H    3.678436   -1.531671   -2.718191
 H    2.989446   -3.140142   -2.953660
 H    3.790962   -2.317978   -4.301606
 H   -1.075013    1.134089    0.263634
 H   -1.951815    2.670892   -1.473988
 H   -0.179902    3.908076   -9.903129
 H   -0.580805    0.226663  -11.596550
 H    0.327237   -0.787781   -0.401157
 H   -1.522445    2.168896   -3.856673
 H   -0.180354    2.951829   -7.578851
 H   -0.602687   -0.915049   -9.357784
 H    1.333847   -2.204186   -4.566655
 H    2.001436   -0.570467   -4.286623
