33 
3p3u_ligand_aiqm1.xyz
 C    2.453156   -2.743128   -3.796020
 C   -0.672513    1.163351   -0.803502
 C   -1.046766    2.117988   -1.748999
 C   -1.539382    2.324763   -9.956292
 C   -0.065677    0.788664  -10.773810
 C   -0.094519   -0.034055   -1.208563
 C   -0.839149    1.866811   -3.096080
 C   -1.268568    1.967201   -8.642847
 C    0.279713    0.352944   -9.501206
 C    2.057368   -1.575085   -2.927084
 N   -0.956230    1.755921  -11.017261
 N    0.829375   -0.410132   -6.758102
 N   -0.587918    1.133402   -5.926275
 O    0.621086   -1.501496   -2.943375
 O    0.824012   -0.462327   -5.373410
 C   -0.336800    0.957714   -8.406842
 C    0.120197   -0.293031   -2.561723
 C   -0.020974    0.548933   -7.031090
 C   -0.245139    0.669498   -3.516124
 C   -0.037637    0.471132   -4.947512
 H    1.998777   -3.661150   -3.423743
 H    2.123852   -2.571241   -4.819152
 H    3.538074   -2.860185   -3.784021
 H   -0.833332    1.352657    0.249645
 H   -1.499862    3.047840   -1.436932
 H   -2.259257    3.105161  -10.171478
 H    0.395538    0.338307  -11.644487
 H    0.191489   -0.791260   -0.489394
 H   -1.127357    2.589687   -3.847349
 H   -1.763931    2.450878   -7.813228
 H    1.006676   -0.435856   -9.365368
 H    2.470609   -0.635558   -3.307272
 H    2.389793   -1.702449   -1.889505
