31 
3p50_ligand_xtb.xyz
 O   45.241216   -5.378309   47.974009
 C   46.070248   -6.087574   48.796295
 C   45.988845   -5.812450   50.166955
 C   46.963667   -7.046455   48.308012
 C   46.809453   -6.505963   51.040496
 C   45.015989   -4.772114   50.670313
 C   47.697944   -7.456591   50.575170
 C   47.767717   -7.717764   49.221310
 C   47.106518   -7.397165   46.837681
 C   43.988870   -5.401245   51.613477
 C   45.757037   -3.625862   51.361229
 C   45.832726   -8.018114   46.249772
 C   47.619679   -6.222478   45.994829
 H   45.390864   -5.657414   47.064982
 H   46.754142   -6.300945   52.098667
 H   44.484081   -4.365067   49.806823
 H   48.333906   -7.992315   51.263796
 H   48.463061   -8.461604   48.858370
 H   47.879010   -8.173388   46.784910
 H   44.470275   -5.796880   52.504651
 H   43.257055   -4.657052   51.920533
 H   43.466611   -6.215216   51.115650
 H   45.053281   -2.853394   51.664007
 H   46.280542   -3.978923   52.246532
 H   46.485698   -3.184286   50.685072
 H   45.002843   -7.317515   46.182193
 H   46.034999   -8.389540   45.246709
 H   45.513197   -8.854885   46.867475
 H   47.850171   -6.566554   44.988090
 H   46.903969   -5.407189   45.910122
 H   48.529688   -5.822750   46.437471
