31 
3p5l_ligand_dft.xyz
 N   -4.326708    3.944719   10.778159
 N   -5.508032    2.416238   14.616879
 S   -4.760324    1.075537   16.815501
 S   -7.203377    2.804423   16.611793
 C   -4.123289    4.212843   11.886080
 C   -1.327997    7.918009   13.930832
 C   -1.641576    7.512301   12.639222
 C   -1.850538    7.217206   15.014697
 C   -2.471692    6.413883   12.428434
 C   -2.678432    6.121378   14.804333
 C   -6.193931    3.503344   13.917738
 C   -4.268733    2.037058   13.935150
 C   -5.318422    4.757793   13.939300
 C   -3.297460    3.216528   13.956124
 C   -5.727875    2.078385   15.903004
 C   -2.999174    5.706089   13.507924
 C   -3.916410    4.493898   13.320771
 H   -7.038869    2.188137   17.788563
 H   -0.680494    8.773892   14.094306
 H   -1.240559    8.049434   11.785172
 H   -1.612969    7.522612   16.029097
 H   -2.705316    6.111088   11.412210
 H   -3.073226    5.588858   15.665534
 H   -6.378777    3.175596   12.888708
 H   -7.166724    3.704525   14.366261
 H   -3.838746    1.171559   14.435608
 H   -4.526539    1.756894   12.907663
 H   -5.809630    5.573963   13.400768
 H   -5.186972    5.078108   14.977786
 H   -3.035862    3.431604   14.996856
 H   -2.373345    2.958098   13.430528
