58 
3p76_ligand_aiqm1.xyz
 N    4.543724    0.396639   -0.209541
 C    5.252631    1.573072    0.248411
 C    4.254415    2.551207    0.875720
 O    3.805610    3.545079    0.300819
 N    3.908104    2.257246    2.129587
 O    2.889400    3.001535    2.706723
 C    4.216764   -0.615382    0.645932
 O    4.454811   -0.502775    1.853155
 N    3.664897   -1.747762    0.115141
 C    2.948185   -2.625690    1.039641
 C    1.471637   -2.234831    1.097975
 C    0.842902   -2.230792   -0.303440
 C    1.674841   -1.376236   -1.272944
 C    3.134092   -1.826247   -1.240116
 C   -0.608516   -1.801620   -0.273907
 C   -1.612752   -2.676645   -0.690057
 C   -2.953270   -2.303010   -0.670706
 C   -3.319296   -1.026701   -0.227797
 C   -2.318970   -0.142410    0.191907
 C   -0.983634   -0.527591    0.167912
 C   -4.691748   -0.631299   -0.203604
 C   -5.860157   -0.293772   -0.182566
 C   -7.233373    0.104810   -0.156928
 C   -7.589238    1.383968    0.289088
 C   -8.925634    1.768163    0.312684
 C   -9.916602    0.884466   -0.106475
 C   -9.568504   -0.388332   -0.550803
 C   -8.234347   -0.780063   -0.577413
 C    5.975671    2.230284   -0.931614
 C    7.106475    1.368957   -1.453149
 O    5.064896    2.428588   -2.002607
 H    4.216821    0.447984   -1.158157
 H    5.966894    1.277374    1.015685
 H    4.013263    1.316868    2.492263
 H    2.694012    3.644015    2.001151
 H    3.054471   -3.650764    0.674806
 H    3.424391   -2.548906    2.012971
 H    0.927439   -2.923882    1.745620
 H    1.382959   -1.237823    1.541013
 H    0.872854   -3.261350   -0.678139
 H    1.274223   -1.459849   -2.284440
 H    1.610355   -0.321756   -0.983071
 H    3.198256   -2.873584   -1.543608
 H    3.763691   -1.266442   -1.929594
 H   -1.344696   -3.668605   -1.034827
 H   -3.719457   -2.993914   -0.996412
 H   -2.596748    0.844923    0.536126
 H   -0.226686    0.174406    0.499136
 H   -6.814149    2.065217    0.613323
 H   -9.191037    2.758087    0.658825
 H  -10.955028    1.186159   -0.086908
 H  -10.334834   -1.078544   -0.877423
 H   -7.956707   -1.767420   -0.921322
 H    6.370272    3.189505   -0.585054
 H    7.835303    1.179357   -0.664511
 H    6.727201    0.412523   -1.813419
 H    7.606457    1.875122   -2.276404
 H    4.449812    3.108050   -1.704402
