58 
3p76_ligand_ani-2x.xyz
 N    4.606512    0.247742   -0.287284
 C    4.627646    1.670753    0.011729
 C    3.193561    2.206789    0.119956
 O    2.585500    2.735962   -0.815436
 N    2.616154    2.055249    1.329305
 O    1.239999    2.257596    1.381460
 C    4.213113   -0.646221    0.672242
 O    4.133795   -0.310877    1.856186
 N    3.925077   -1.938613    0.253949
 C    3.233005   -2.755585    1.252953
 C    1.739778   -2.417631    1.297887
 C    1.078958   -2.515986   -0.092949
 C    1.915194   -1.790943   -1.169080
 C    3.386829   -2.195591   -1.080552
 C   -0.340956   -1.990937   -0.065521
 C   -1.417045   -2.807666   -0.419751
 C   -2.718172   -2.325639   -0.411200
 C   -2.982771   -0.999015   -0.044861
 C   -1.905388   -0.177231    0.312158
 C   -0.608086   -0.669020    0.301476
 C   -4.330583   -0.495607   -0.035822
 C   -5.465465   -0.073550   -0.028724
 C   -6.814008    0.428633   -0.020055
 C   -7.454724    0.721957    1.191251
 C   -8.757619    1.206990    1.196470
 C   -9.435782    1.404935   -0.003198
 C   -8.806922    1.116165   -1.211270
 C   -7.504155    0.630895   -1.222802
 C    5.372542    2.418873   -1.103729
 C    6.859886    2.109206   -1.117438
 O    4.826489    2.049301   -2.355508
 H    4.512555    0.023638   -1.265290
 H    5.125778    1.802377    0.976319
 H    2.925090    1.297124    1.932365
 H    1.055150    2.621834    0.492079
 H    3.382446   -3.806449    0.977616
 H    3.703304   -2.582425    2.221585
 H    1.222595   -3.078868    2.002900
 H    1.630144   -1.397374    1.686912
 H    1.051526   -3.581349   -0.366724
 H    1.519642   -2.018710   -2.165020
 H    1.821362   -0.704544   -1.034606
 H    3.477020   -3.275133   -1.248158
 H    4.000859   -1.724783   -1.854056
 H   -1.233991   -3.841678   -0.708194
 H   -3.538951   -2.979684   -0.690528
 H   -2.089517    0.853252    0.600855
 H    0.201070    0.004868    0.592784
 H   -6.926293    0.567803    2.128026
 H   -9.245706    1.431443    2.141385
 H  -10.454278    1.784202    0.003350
 H   -9.333571    1.269574   -2.149661
 H   -7.014214    0.405821   -2.166121
 H    5.231514    3.497216   -0.934907
 H    7.325848    2.433344   -0.179970
 H    7.035146    1.036101   -1.239338
 H    7.340586    2.639897   -1.942944
 H    3.904876    2.361176   -2.328247
