20 
3pax_ligand_aiqm1.xyz
 C   39.565355   22.307004   22.106972
 O   38.256890   22.020153   21.861332
 C   37.817852   22.094302   20.516862
 C   40.468537   22.773751   21.153527
 C   41.796276   23.015511   21.530438
 C   42.821332   23.499659   20.550092
 O   44.014632   23.356187   20.736453
 N   42.330922   24.096794   19.416851
 C   42.217452   22.796481   22.836302
 C   41.302442   22.351419   23.784833
 C   39.984284   22.109086   23.427904
 H   37.880284   23.116481   20.135410
 H   38.400038   21.431159   19.874028
 H   36.780332   21.775491   20.524585
 H   40.171618   22.911886   20.121858
 H   43.022984   24.554915   18.848688
 H   41.418686   24.514568   19.436797
 H   43.253618   22.971843   23.083049
 H   41.616148   22.181191   24.806860
 H   39.259720   21.754920   24.149159
