16 
3pcb_ligand_xtb.xyz
 C   15.906083   13.613268   40.317158
 O   17.160586   13.397876   39.883176
 O   15.484263   14.730000   40.439443
 C   15.098095   12.401247   40.646295
 C   15.374407   11.150174   40.107853
 C   14.580121   10.058757   40.444429
 C   13.516702   10.222432   41.325718
 C   13.240713   11.471766   41.853920
 C   14.020167   12.560412   41.514788
 O   14.886906    8.859718   39.888347
 H   17.388250   12.458592   39.868970
 H   16.168630   10.981498   39.394064
 H   12.903529    9.370847   41.588744
 H   12.409450   11.591451   42.531648
 H   13.816647   13.542503   41.910673
 H   14.263848    8.185261   40.184874
