16 
3pcb_ligand_ani-2x.xyz
 C   15.900148   13.616951   40.292481
 O   17.159781   13.419532   39.846719
 O   15.464165   14.733482   40.393601
 C   15.102609   12.391575   40.644179
 C   15.374159   11.136565   40.101151
 C   14.575897   10.048281   40.445875
 C   13.513772   10.211434   41.335196
 C   13.242969   11.470715   41.861681
 C   14.024136   12.562984   41.511954
 O   14.887075    8.846722   39.884874
 H   17.415380   12.493442   39.953426
 H   16.167266   10.971731   39.373979
 H   12.896043    9.357718   41.610136
 H   12.409095   11.596719   42.546454
 H   13.818861   13.558089   41.893743
 H   14.267043    8.179859   40.204652
