16 
3pcc_ligand_aiqm1.xyz
 C   15.599758   13.883541   40.817489
 O   16.347007   14.216305   39.938944
 O   15.244322   14.777812   41.773189
 C   15.030251   12.509285   40.934139
 C   15.660313   11.483577   40.219959
 C   15.191392   10.182923   40.273055
 C   14.061668    9.894108   41.041055
 C   13.409162   10.906618   41.742332
 C   13.896430   12.207100   41.688079
 O   13.636002    8.603209   41.063246
 H   14.741950   14.336187   42.463257
 H   16.523805   11.737184   39.620437
 H   15.674842    9.385068   39.726281
 H   12.519855   10.686304   42.321434
 H   13.349399   12.981739   42.213819
 H   12.855144    8.534839   41.616585
