16 
3pcc_ligand_xtb.xyz
 C   15.595334   13.878796   40.814064
 O   16.317374   14.214470   39.915268
 O   15.270951   14.752185   41.788801
 C   15.028416   12.508164   40.929247
 C   15.661787   11.484928   40.221028
 C   15.195960   10.191756   40.278482
 C   14.065161    9.893323   41.039089
 C   13.414716   10.911711   41.730381
 C   13.894350   12.206055   41.679233
 O   13.635076    8.612148   41.070947
 H   14.733247   14.347937   42.481713
 H   16.529613   11.734539   39.630564
 H   15.683083    9.393598   39.742278
 H   12.527038   10.686960   42.306950
 H   13.344684   12.975774   42.205803
 H   12.844511    8.533459   41.619453
