19 
3pce_ligand_aiqm1.xyz
 C   13.802583   13.969328   41.873889
 O   14.579335   13.551808   42.895121
 O   13.719985   15.131636   41.596036
 C   13.017376   12.881289   41.149671
 C   13.732985   11.558195   41.064923
 C   13.454582   10.551366   41.988403
 C   14.157474    9.345795   41.945426
 C   15.148482    9.143786   40.989843
 C   15.425876   10.150247   40.070915
 C   14.727918   11.353230   40.103291
 O   13.829843    8.408190   42.880031
 H   14.565495   12.586050   42.930788
 H   12.781830   13.270623   40.161983
 H   12.076702   12.769599   41.697320
 H   12.679613   10.673352   42.737651
 H   15.696297    8.210065   40.961545
 H   16.195924    9.994811   39.328461
 H   14.954153   12.136538   39.393249
 H   14.374747    7.629892   42.748454
