19 
3pcg_ligand_aiqm1.xyz
 C   15.506456   13.865259   40.203225
 O   15.964569   14.689224   39.464127
 O   15.951890   13.745302   41.472093
 C   14.366631   12.933028   39.805797
 C   14.361803   11.612951   40.526989
 C   15.214082   10.575760   40.129581
 C   15.268379    9.375154   40.825232
 C   14.459634    9.191122   41.945614
 C   13.602998   10.205521   42.358073
 C   13.559149   11.405954   41.647987
 O   14.554938    7.997440   42.596260
 H   15.508866   12.994214   41.890067
 H   14.431854   12.802633   38.727320
 H   13.443420   13.483197   40.014789
 H   15.851481   10.717624   39.265595
 H   15.930912    8.578951   40.515679
 H   12.969291   10.072102   43.227136
 H   12.880518   12.185235   41.978010
 H   13.949426    7.995728   43.340525
