19 
3pcg_ligand_xtb.xyz
 C   15.514494   13.852472   40.270399
 O   16.067624   14.641510   39.562893
 O   15.802231   13.757218   41.574474
 C   14.413091   12.913330   39.772920
 C   14.395654   11.604837   40.506905
 C   15.175648   10.538050   40.068943
 C   15.203284    9.347529   40.763457
 C   14.448819    9.197777   41.925448
 C   13.670173   10.257229   42.374150
 C   13.648541   11.448702   41.669922
 O   14.504253    8.009850   42.578014
 H   15.300431   13.042471   42.000457
 H   14.562935   12.770232   38.702726
 H   13.468267   13.446443   39.913315
 H   15.764077   10.645529   39.170275
 H   15.801349    8.516886   40.425601
 H   13.076815   10.149243   43.272352
 H   13.021611   12.256492   42.023571
 H   13.937003    8.030602   43.358278
