16 
3pcj_ligand_ani-2x.xyz
 N   13.219430   10.022903   41.578782
 C   14.343425    9.583215   40.872765
 C   15.139870   10.663296   40.360258
 C   14.801193   11.964507   40.598756
 C   13.626582   12.308972   41.308130
 C   12.843433   11.296691   41.788407
 C   15.711835   13.015010   40.014840
 O   16.383985   12.823429   39.038223
 O   15.741145   14.201395   40.654583
 O   14.510458    8.366015   40.774004
 O   12.430484    9.020927   42.077778
 H   16.019100   10.418191   39.778913
 H   13.314444   13.338228   41.437793
 H   11.924447   11.407985   42.351532
 H   15.278059   14.134053   41.500808
 H   12.937312    8.231283   41.764727
