16 
3pcj_ligand_aiqm1.xyz
 N   13.225105   10.022376   41.585287
 C   14.326809    9.583586   40.860914
 C   15.131062   10.649837   40.347078
 C   14.809432   11.960184   40.583901
 C   13.650613   12.307023   41.330741
 C   12.865652   11.299472   41.809760
 C   15.720561   13.014791   40.012375
 O   16.410041   12.833493   39.050716
 O   15.733578   14.199915   40.660308
 O   14.480957    8.366856   40.750704
 O   12.432145    9.025103   42.083921
 H   15.996752   10.393805   39.756638
 H   13.342238   13.329782   41.474676
 H   11.952195   11.433570   42.371599
 H   15.220925   14.133763   41.471426
 H   12.927135    8.242544   41.750255
