20 
3pcn_ligand_ani-2x.xyz
 C   14.155362   11.569893   40.591655
 C   14.288556   10.242040   40.177830
 C   14.122175    9.198575   41.078491
 C   13.813840    9.485808   42.415777
 C   13.675419   10.799388   42.832141
 C   13.844919   11.841338   41.921760
 C   14.359564   12.692339   39.605127
 C   15.558521   13.602444   39.879772
 O   16.639202   13.027939   40.444666
 O   15.571492   14.764207   39.577067
 O   14.259878    7.913128   40.666637
 O   13.669934    8.388643   43.227130
 H   14.537065   10.007975   39.146102
 H   13.437047   11.015165   43.871775
 H   13.745022   12.871905   42.252302
 H   13.488705   13.352196   39.559363
 H   14.492954   12.279367   38.596110
 H   16.453041   12.101072   40.656703
 H   14.107359    7.341913   41.434288
 H   13.459244    8.675867   44.124003
