50 
3pcu_ligand_xtb.xyz
 C    5.564309    1.875085    1.442406
 C   -6.226012    2.419954    1.354590
 C    5.909841   -1.567830    0.622874
 C    5.709307    0.314215   -1.021595
 C   -3.338907    0.816535   -1.896748
 C   -5.290099   -0.709166   -1.489762
 O   -5.910706    0.039047    1.398999
 O    4.237128   -2.298911   -1.714282
 C    5.169730    0.616067    1.431846
 C    0.160269    0.171230    0.880574
 C   -0.223524   -1.900721   -1.006305
 C    2.617479   -0.073864    0.548376
 C   -2.447586    0.179686    1.038555
 O   -4.850057    1.286759   -0.150615
 O   -2.584038   -1.583442   -0.583197
 O    2.100482   -2.055131   -1.288619
 C   -5.659536    1.101230    0.893514
 C   -1.097313   -0.253798    0.555113
 C   -1.285344   -1.283741   -0.382006
 C    3.665266   -0.686659   -0.049950
 C    3.407344   -1.717899   -1.055745
 C    1.266679   -0.437101    0.263964
 C    1.058497   -1.463083   -0.671327
 C   -3.394196   -0.669071    0.163322
 C    5.107964   -0.310810    0.242373
 C   -4.231123    0.175119   -0.834460
 H    5.869214    2.400187    0.554303
 H    5.601134    2.441963    2.358229
 H   -5.607756    3.241397    1.007612
 H   -6.304885    2.422890    2.437805
 H   -7.226468    2.527494    0.939758
 H    5.937715   -2.263765   -0.209190
 H    5.459126   -2.063583    1.480687
 H    6.927834   -1.284018    0.880643
 H    5.691339   -0.412658   -1.828255
 H    6.740212    0.606005   -0.837955
 H    5.139264    1.188834   -1.327789
 H   -3.944185    1.453354   -2.535779
 H   -2.874025    0.043769   -2.500929
 H   -2.563505    1.425118   -1.439149
 H   -5.849540   -0.138908   -2.227500
 H   -4.798931   -1.546317   -1.976792
 H   -5.978155   -1.092831   -0.740952
 H    4.880529    0.143571    2.363664
 H    0.319874    0.958907    1.601023
 H   -0.359243   -2.690795   -1.724413
 H    2.784876    0.716236    1.266777
 H   -2.583064   -0.042693    2.098601
 H   -2.616972    1.248251    0.896446
 H   -4.079843   -1.266406    0.771555
