59 
3pj3_ligand_ani-2x.xyz
 C  -18.063206    5.806381  -20.360384
 N  -18.796209    4.639140  -20.418873
 N  -18.048954    6.331819  -19.163133
 C  -19.296838    4.419199  -19.156143
 C  -20.162182    5.301939  -14.200991
 C  -18.805069    5.483521  -18.377927
 C  -20.842831    4.947942  -12.901165
 N  -20.069611    3.427879  -18.741739
 N  -20.360347    4.401616  -15.219475
 C  -19.138016    5.529342  -17.026179
 C  -23.168872    8.090694  -10.841296
 C  -23.993732    8.881673   -9.886813
 N  -22.951381    6.791295  -10.443575
 C  -19.948904    4.496761  -16.562688
 C  -24.278955   10.159185  -10.150574
 C  -21.514948    5.995626  -12.275291
 C  -17.368923    6.365025  -21.532486
 O  -19.538746    6.343696  -14.322831
 C  -20.795138    3.666732  -12.323296
 C  -22.231728    5.775507  -11.103334
 O  -22.734894    8.569725  -11.878199
 C  -20.379182    3.485821  -17.450058
 C  -21.518629    3.471949  -11.144593
 C  -22.234458    4.496280  -10.542094
 C  -25.073757   11.087616   -9.330157
 C  -19.995359    2.514418  -12.877043
 C  -17.177574    5.617195  -22.697235
 C  -16.879050    7.672445  -21.472655
 C  -25.249926   12.397083   -9.793169
 C  -25.659033   10.721719   -8.112869
 C  -16.522984    6.173077  -23.788966
 C  -16.227779    8.227725  -22.566330
 C  -25.989077   13.319522   -9.064272
 C  -26.398976   11.644822   -7.383085
 C  -16.049587    7.481546  -23.728310
 C  -26.566988   12.943914   -7.853692
 H  -20.986422    3.638010  -15.018602
 H  -18.801313    6.312495  -16.357293
 H  -24.345720    8.387673   -8.983995
 H  -23.381578    6.508746   -9.576478
 H  -23.883108   10.574374  -11.077415
 H  -21.483849    6.989221  -12.705416
 H  -21.009894    2.678713  -17.082653
 H  -21.509219    2.486123  -10.684430
 H  -22.786575    4.302756   -9.624765
 H  -19.015211    2.831350  -13.246353
 H  -19.836300    1.760986  -12.098956
 H  -20.512332    2.003684  -13.698649
 H  -17.522128    4.587024  -22.751715
 H  -17.017481    8.239721  -20.556210
 H  -24.799018   12.692096  -10.738854
 H  -25.541037    9.712530   -7.726418
 H  -16.383197    5.581906  -24.690567
 H  -15.855563    9.247280  -22.510766
 H  -26.115587   14.332540   -9.439056
 H  -26.847225   11.344836   -6.439140
 H  -15.539393    7.917549  -24.582872
 H  -27.146439   13.661470   -7.279019
 H  -19.099567    4.147087  -21.246456
