67 
3pka_ligand_xtb.xyz
 N    1.420980   -1.766038   -2.634523
 O   -2.530056   -1.575467   -1.303015
 O   -2.141630    0.207891   -5.167885
 O   -3.674013    0.413870   -2.865026
 O   -0.588170   -2.765279   -2.887469
 O    0.503844    0.485887   -3.563271
 O    2.843929   -1.011430   -0.280598
 C   -3.470093    1.069813    1.884277
 C   -3.041600    0.222262    0.717111
 C   -2.275483    0.585243   -0.295871
 C   -1.883917   -0.331252   -1.423340
 C   -2.270636    0.324349   -2.766975
 C   -1.750804   -0.460730   -3.988874
 C   -0.223471   -0.644874   -3.992563
 C   -2.955803    2.506192    1.794139
 C   -2.933625    0.417551    3.165667
 C   -5.003483    1.080876    1.921501
 C    0.168929   -1.830232   -3.100294
 C    1.947837   -2.713040   -1.681994
 C    1.969985   -2.124490   -0.271529
 C    0.605616    1.509680   -4.532817
 C    3.053327   -0.455416    0.979242
 C    2.220051    0.567296    1.433002
 C    2.459918    1.115170    2.684580
 C    3.502986    0.673792    3.484760
 C    4.326915   -0.332426    3.003031
 C    4.118958   -0.907547    1.758338
 C    1.083794    1.066711    0.592500
 C    3.755632    1.294837    4.825409
 C    5.025005   -1.994971    1.261857
 H    1.917141   -0.891806   -2.740314
 H   -2.032018   -2.233042   -1.818769
 H   -3.050180    0.507672   -5.021274
 H   -4.025064   -0.359048   -2.396577
 H   -3.409473   -0.794827    0.740887
 H   -1.871914    1.581146   -0.393277
 H   -0.789245   -0.447804   -1.405427
 H   -1.878318    1.345780   -2.812224
 H   -2.198075   -1.468758   -3.982630
 H    0.058581   -0.904999   -5.026873
 H   -3.319869    2.987665    0.890020
 H   -3.305513    3.078321    2.651026
 H   -1.868676    2.527414    1.790957
 H   -1.845653    0.396484    3.154370
 H   -3.259221    0.976967    4.040198
 H   -3.294814   -0.604253    3.256291
 H   -5.398406    1.526455    1.011273
 H   -5.358609    1.657864    2.772867
 H   -5.392349    0.068645    2.004859
 H    1.306756   -3.596331   -1.704917
 H    2.964961   -2.980939   -1.978693
 H    0.956841   -1.816413    0.022912
 H    2.319818   -2.885245    0.439336
 H   -0.377792    1.851995   -4.859615
 H    1.145112    2.324675   -4.053963
 H    1.165024    1.158348   -5.407151
 H    1.815187    1.906821    3.039840
 H    5.152517   -0.680335    3.607869
 H    0.156788    0.560973    0.867392
 H    0.941067    2.134227    0.745530
 H    1.275345    0.883902   -0.462359
 H    4.430206    2.145114    4.720036
 H    4.217992    0.580831    5.502783
 H    2.829054    1.653464    5.267282
 H    6.047675   -1.814026    1.584585
 H    4.997178   -2.043369    0.176213
 H    4.713124   -2.961495    1.660071
