58 
3pke_ligand_ani-2x.xyz
 N    1.823390    0.848183   -0.691314
 O   -2.422723    0.916287   -1.616218
 O   -1.256946    4.284466    0.615727
 O   -3.361695    2.641870    0.428570
 O    0.281695    1.655195   -2.149893
 O    0.740586    2.136273    1.299255
 C   -4.348872   -2.461735    0.340552
 C   -3.555662   -1.317871   -0.250309
 C   -3.101257   -0.236146    0.376036
 C   -2.097815    0.701904   -0.249495
 C   -2.071143    2.044413    0.480373
 C   -1.075304    3.067424   -0.081563
 C    0.399731    2.682569    0.041718
 C   -4.602991   -2.288179    1.840739
 C   -3.552360   -3.754186    0.108748
 C   -5.691123   -2.544231   -0.399947
 C    0.820525    1.677761   -1.041845
 C    2.347203   -0.169534   -1.593649
 C    3.891122   -0.091982   -1.659099
 C    4.347567   -1.056339   -0.583605
 C    3.304255   -1.917695   -0.236356
 C    2.069152   -1.595228   -1.052669
 C    5.589429   -1.167459    0.026194
 C    5.774708   -2.151031    0.999311
 C    4.734260   -3.009421    1.345790
 C    3.488342   -2.900887    0.725642
 C    0.989086    3.114300    2.293843
 H    2.134511    0.845927    0.270447
 H   -1.592055    1.143549   -2.069488
 H   -2.216401    4.348561    0.750045
 H   -3.651472    2.532490   -0.491920
 H   -3.351658   -1.434587   -1.319133
 H   -3.404017    0.007008    1.393776
 H   -1.098837    0.241413   -0.175065
 H   -1.841040    1.877144    1.535519
 H   -1.289583    3.220390   -1.149390
 H    0.980210    3.604805   -0.124620
 H   -3.659847   -2.216376    2.394569
 H   -5.190252   -1.384883    2.042741
 H   -5.161247   -3.146698    2.230735
 H   -2.592185   -3.721398    0.636057
 H   -4.111091   -4.627006    0.466167
 H   -3.346946   -3.895493   -0.958489
 H   -6.279008   -3.399810   -0.047385
 H   -5.531343   -2.663089   -1.477865
 H   -6.281843   -1.634243   -0.243327
 H    1.874226    0.009338   -2.561474
 H    4.249493    0.931628   -1.511125
 H    4.243978   -0.425130   -2.645149
 H    1.967798   -2.300120   -1.889555
 H    1.138696   -1.639716   -0.474799
 H    6.409140   -0.503885   -0.245506
 H    6.741271   -2.248312    1.488368
 H    4.893085   -3.772964    2.103850
 H    2.680281   -3.579174    0.995640
 H    0.091493    3.702344    2.516529
 H    1.792643    3.794251    1.976609
 H    1.313945    2.578285    3.189004
