58 
3pke_ligand_xtb.xyz
 N    1.947358    0.879805   -0.767178
 O   -2.104097    0.398415   -1.719144
 O   -1.480513    4.040250    0.341954
 O   -3.370124    2.076943    0.124918
 O    0.374306    1.519063   -2.255292
 O    0.725120    2.047656    1.191159
 C   -4.614860   -2.289755    0.388919
 C   -3.670376   -1.296541   -0.231021
 C   -2.641307   -0.698692    0.342221
 C   -1.780491    0.321856   -0.352476
 C   -2.024964    1.697488    0.311626
 C   -1.132714    2.815887   -0.265615
 C    0.371969    2.562787   -0.074536
 C   -4.285697   -2.587196    1.851236
 C   -4.546200   -3.588809   -0.424050
 C   -6.030591   -1.705289    0.296477
 C    0.884051    1.592635   -1.147626
 C    2.553204   -0.153257   -1.579492
 C    4.083546    0.018555   -1.587358
 C    4.542958   -0.870263   -0.468809
 C    3.532888   -1.757538   -0.104210
 C    2.311869   -1.539602   -0.948086
 C    5.765417   -0.895121    0.170920
 C    5.968686   -1.819162    1.186781
 C    4.964403   -2.700364    1.549861
 C    3.735543   -2.677094    0.904606
 C    0.724383    3.009101    2.227815
 H    2.236066    0.952105    0.198725
 H   -1.347436    0.783646   -2.193591
 H   -2.444957    4.031295    0.431800
 H   -3.631781    1.720732   -0.737708
 H   -3.879423   -1.067964   -1.267535
 H   -2.362209   -0.871998    1.370181
 H   -0.724017    0.050191   -0.206511
 H   -1.856291    1.628628    1.391411
 H   -1.312373    2.891061   -1.351106
 H    0.874992    3.530756   -0.240863
 H   -3.288146   -3.010056    1.943401
 H   -4.339919   -1.680264    2.448266
 H   -4.998853   -3.304096    2.252855
 H   -3.545503   -4.012600   -0.375529
 H   -5.251282   -4.318946   -0.032144
 H   -4.788199   -3.401310   -1.467570
 H   -6.755816   -2.399673    0.715618
 H   -6.298431   -1.511323   -0.739610
 H   -6.087632   -0.768840    0.846857
 H    2.107826   -0.058886   -2.572094
 H    4.371892    1.060839   -1.450211
 H    4.500360   -0.325117   -2.536741
 H    2.246922   -2.305548   -1.724177
 H    1.385510   -1.565473   -0.373101
 H    6.549713   -0.207972   -0.110935
 H    6.918727   -1.849285    1.699314
 H    5.137723   -3.411935    2.343466
 H    2.952825   -3.364819    1.189025
 H   -0.251669    3.485455    2.332983
 H    1.475712    3.783483    2.035753
 H    0.977010    2.469126    3.138473
