43 
3pn3_ligand_ani-2x.xyz
 C   -0.150403    2.928127    1.259257
 O   -0.627599    2.324513    2.202060
 N   -0.643693    2.885424   -0.003414
 O    0.067080    3.514138   -1.004443
 C   -1.675894    1.960963   -0.412737
 C   -1.077491    0.776002   -1.188459
 C   -2.128991   -0.195713   -1.744877
 C   -2.893040   -0.964334   -0.692107
 C   -4.025976   -0.415023   -0.085702
 C   -4.722162   -1.113862    0.895305
 C   -4.295184   -2.379661    1.286802
 C   -3.171355   -2.940928    0.688578
 C   -2.476370   -2.236642   -0.292259
 N   -0.102648    0.069594   -0.382061
 C    1.218363    0.357835   -0.430962
 O    1.694153    1.287602   -1.078431
 O    1.920934   -0.505175    0.310473
 C    3.381830   -0.459384    0.305533
 C    3.866698    0.854431    0.907909
 C    3.771588   -1.630854    1.200495
 C    3.919203   -0.666596   -1.107186
 H    0.732075    3.592423    1.319299
 H    0.769834    2.862598   -1.236310
 H   -2.134154    1.626811    0.520191
 H   -2.408273    2.502064   -1.024766
 H   -0.520503    1.191551   -2.035675
 H   -2.826321    0.371468   -2.375046
 H   -1.604950   -0.896633   -2.404698
 H   -4.358752    0.579878   -0.381642
 H   -5.600385   -0.668388    1.354467
 H   -4.837480   -2.927031    2.053126
 H   -2.829806   -3.928571    0.987045
 H   -1.598460   -2.683026   -0.758813
 H   -0.402746   -0.657746    0.252633
 H    4.953443    0.815353    1.037327
 H    3.619209    1.693879    0.254674
 H    3.404929    1.016295    1.887367
 H    4.860845   -1.702998    1.280900
 H    3.392342   -2.571377    0.788348
 H    3.358997   -1.498754    2.205712
 H    3.670851    0.181739   -1.747949
 H    5.008735   -0.770623   -1.065469
 H    3.500925   -1.579372   -1.544394
