43 
3pn3_ligand_dft.xyz
 C    0.914738    1.977678    1.632467
 O    0.379323    1.206054    2.408034
 N    0.350849    2.441813    0.486851
 O    1.156017    3.165309   -0.374738
 C   -0.915221    1.994351   -0.034064
 C   -0.752352    0.987418   -1.187615
 C   -2.108706    0.543734   -1.767836
 C   -2.955841   -0.255693   -0.805178
 C   -3.861524    0.376431    0.051185
 C   -4.604373   -0.355618    0.971601
 C   -4.453824   -1.737382    1.049733
 C   -3.562478   -2.381138    0.196899
 C   -2.822591   -1.645164   -0.724715
 N    0.026684   -0.164012   -0.774674
 C    1.384545   -0.147112   -0.777001
 O    2.066025    0.743918   -1.280177
 O    1.856723   -1.249844   -0.193527
 C    3.269297   -1.379934    0.157840
 C    3.677146   -0.235152    1.083763
 C    3.302106   -2.710401    0.904495
 C    4.123853   -1.444650   -1.105603
 H    1.922720    2.402753    1.773317
 H    1.631284    2.468691   -0.882722
 H   -1.444765    1.533756    0.803936
 H   -1.481814    2.865730   -0.380854
 H   -0.189497    1.472415   -1.989813
 H   -2.649285    1.443085   -2.084344
 H   -1.910032   -0.045756   -2.668752
 H   -3.988856    1.454885   -0.007484
 H   -5.302135    0.154804    1.628604
 H   -5.032846   -2.310047    1.767659
 H   -3.443721   -3.459472    0.245603
 H   -2.136206   -2.154747   -1.397133
 H   -0.403485   -0.813683   -0.129368
 H    4.672895   -0.433486    1.492924
 H    3.707193    0.716015    0.548474
 H    2.969632   -0.156245    1.915808
 H    4.325892   -2.935075    1.218633
 H    2.950425   -3.520784    0.258784
 H    2.664492   -2.669182    1.792503
 H    4.093923   -0.498519   -1.647121
 H    5.161262   -1.664363   -0.832319
 H    3.766858   -2.243081   -1.764121
