40 
3ppj_ligand_xtb.xyz
 C   80.877630   10.903889   -8.090933
 N   81.535484   11.807718   -8.816967
 C   82.790288   11.596736   -9.140197
 C   83.437805   10.430384   -8.739517
 C   82.737248    9.448369   -8.004038
 C   81.410369    9.708609   -7.653829
 C   83.699409    8.408476   -7.755845
 C   84.880989    8.857586   -8.328893
 O   84.716433   10.077871   -8.931207
 C   86.204915    8.258690   -8.381208
 O   87.155916    8.700544   -8.973308
 O   86.254351    7.099383   -7.667793
 C   87.513055    6.438887   -7.684304
 N   83.547372    7.265534   -7.032234
 C   82.390634    6.512592   -6.879828
 C   82.316525    5.629964   -5.796217
 C   81.196558    4.852539   -5.588741
 C   80.136470    4.955845   -6.480231
 C   80.215072    5.814787   -7.580531
 C   81.336503    6.586635   -7.793175
 C   78.975370    5.739764   -8.420625
 C   78.077021    4.726612   -7.694194
 C   78.864098    4.265131   -6.494051
 N   78.526866    3.418978   -5.609232
 O   77.260966    2.847861   -5.779782
 H   79.857808   11.172566   -7.852853
 H   83.291176   12.360131   -9.717235
 H   80.831943    9.018146   -7.061591
 H   87.804150    6.204694   -8.709772
 H   88.280230    7.074614   -7.238256
 H   87.385186    5.528085   -7.104931
 H   84.411040    6.839135   -6.724607
 H   83.153987    5.569606   -5.116542
 H   81.132509    4.175418   -4.752499
 H   81.410934    7.221490   -8.662585
 H   79.216826    5.412708   -9.433880
 H   78.501359    6.720176   -8.499697
 H   77.824751    3.866087   -8.316336
 H   77.134512    5.165741   -7.361955
 H   77.175444    2.242119   -5.031281
