40 
3ppj_ligand_dft.xyz
 C   -1.312875    3.655818   -0.711116
 N   -2.526592    4.040526   -0.265523
 C   -3.392769    3.111275    0.110388
 C   -3.044462    1.763701    0.050855
 C   -1.784956    1.354065   -0.388571
 C   -0.881413    2.343332   -0.797428
 C   -1.813636   -0.092352   -0.316427
 C   -3.071688   -0.404026    0.140552
 O   -3.832092    0.716486    0.364051
 C   -3.728103   -1.682328    0.404993
 O   -4.828239   -1.822919    0.879282
 O   -2.926453   -2.714068    0.044449
 C   -3.467227   -4.012997    0.294298
 N   -0.838645   -0.973149   -0.720895
 C    0.543511   -0.799171   -0.524383
 C    1.416784   -1.555032   -1.324148
 C    2.789162   -1.445504   -1.171661
 C    3.293015   -0.556251   -0.223602
 C    2.431512    0.195161    0.574557
 C    1.054789    0.068638    0.445010
 C    3.196565    1.073715    1.538757
 C    4.688223    0.787718    1.235311
 C    4.680273   -0.242734    0.126975
 N    5.680216   -0.788702   -0.449358
 O    6.876876   -0.306210    0.081741
 H   -0.653417    4.463697   -1.016562
 H   -4.371147    3.430009    0.460070
 H    0.109114    2.102057   -1.164951
 H   -3.674543   -4.141583    1.358904
 H   -4.391064   -4.156325   -0.270471
 H   -2.703334   -4.716652   -0.034785
 H   -1.157467   -1.929157   -0.804499
 H    0.998941   -2.217081   -2.077312
 H    3.465697   -2.028925   -1.787752
 H    0.384330    0.623556    1.093768
 H    2.939937    0.832876    2.576006
 H    2.946040    2.129627    1.390002
 H    5.229229    0.398119    2.103319
 H    5.231309    1.680723    0.910134
 H    7.540565   -0.786153   -0.427788
