45 
3ppk_ligand_xtb.xyz
 C   80.689695   10.690051   -8.320225
 N   81.451475   11.605621   -8.915269
 C   82.740972   11.391909   -9.049924
 C   83.314247   10.213213   -8.585706
 C   82.509186    9.216700   -7.989647
 C   81.147274    9.479849   -7.837035
 O   84.614806    9.863802   -8.594732
 C   84.679755    8.622042   -7.999076
 C   83.422332    8.163195   -7.625537
 C   85.938555    7.949573   -7.775555
 N   83.217730    6.997439   -6.971621
 C   82.047289    6.250727   -6.890875
 C   81.915942    5.358351   -5.803685
 C   80.791355    4.600606   -5.664691
 C   79.740549    4.689563   -6.600875
 C   79.875716    5.560410   -7.711957
 C   81.052482    6.322778   -7.837956
 C   78.554459    3.921071   -6.473141
 C   77.560619    4.023905   -7.416084
 C   77.706709    4.884124   -8.511881
 C   78.836078    5.637749   -8.662708
 O   85.995988    6.880578   -7.178681
 O   78.450805    3.096973   -5.396243
 N   87.025269    8.616877   -8.284023
 C   88.354165    8.260492   -8.241195
 N   89.170490    9.142081   -8.821273
 C   90.457935    8.858345   -8.814410
 N   91.026402    7.789905   -8.292135
 C   90.211779    6.913692   -7.715625
 C   88.842369    7.089936   -7.654048
 H   79.646167   10.958248   -8.232071
 H   83.325388   12.166728   -9.524680
 H   80.482267    8.781586   -7.355582
 H   84.080715    6.552504   -6.664114
 H   82.721007    5.291980   -5.087145
 H   80.681318    3.919684   -4.835496
 H   81.170245    6.951133   -8.707837
 H   76.657995    3.435680   -7.314362
 H   76.909486    4.943141   -9.237775
 H   78.947775    6.302175   -9.506528
 H   77.606256    2.631336   -5.424832
 H   86.851664    9.500179   -8.749513
 H   91.111289    9.580240   -9.287618
 H   90.685563    6.039134   -7.289393
 H   88.183439    6.379893   -7.187143
