46 
3ppm_ligand_xtb.xyz
 N   32.788232  -38.848478    8.119155
 C   33.401976  -40.016262    7.957264
 C   32.741666  -41.243610    8.044005
 C   31.383508  -41.235791    8.311568
 C   30.742352  -40.018696    8.480576
 C   31.497061  -38.855569    8.372990
 C   34.825091  -39.975358    7.678548
 N   35.592712  -38.925188    7.564513
 N   36.820237  -39.362750    7.307330
 C   36.774692  -40.665318    7.270472
 O   35.523975  -41.113355    7.500493
 C   37.902296  -41.588250    7.013194
 C   39.210491  -40.878074    6.808810
 O   37.743186  -42.783602    6.979702
 C   40.349475  -41.842965    6.495891
 C   41.672679  -41.105170    6.311469
 C   42.816745  -42.024274    5.882601
 C   43.233562  -43.015995    6.965833
 C   44.446427  -43.848263    6.532775
 C   44.832876  -44.815896    7.613774
 C   44.234071  -46.067114    7.689036
 C   44.558685  -46.946015    8.706695
 C   45.487432  -46.583528    9.667235
 C   46.088034  -45.338029    9.603493
 C   45.760771  -44.461316    8.584435
 H   33.284339  -42.165436    7.904724
 H   30.836420  -42.164137    8.386550
 H   29.685395  -39.970553    8.690259
 H   31.044349  -37.881020    8.496360
 H   39.422966  -40.303290    7.713717
 H   39.077036  -40.147386    6.007749
 H   40.107350  -42.396906    5.586834
 H   40.429275  -42.565099    7.308862
 H   41.942578  -40.604778    7.244250
 H   41.540901  -40.333225    5.549171
 H   43.680252  -41.407003    5.622054
 H   42.521257  -42.572144    4.984851
 H   42.408449  -43.692707    7.192291
 H   43.481773  -42.474038    7.881460
 H   45.282067  -43.179518    6.315097
 H   44.197487  -44.391401    5.618498
 H   43.509583  -46.355390    6.940286
 H   44.086784  -47.917044    8.750288
 H   45.743066  -47.269550   10.461449
 H   46.814426  -45.049148   10.349477
 H   46.234014  -43.490358    8.538219
