32 
3prz_ligand_aiqm1.xyz
 C   45.100435   11.599775   28.118853
 N   47.076503   12.947387   28.504864
 C   47.695545   13.923663   29.141024
 N   49.005895   14.126495   28.822296
 C   47.047931   14.711623   30.148329
 C   45.694515   14.404653   30.399974
 C   44.991107   15.171828   31.381239
 N   45.075565   13.387273   29.720057
 C   45.785417   12.721097   28.840585
 C   47.018927   16.455580   31.812062
 C   45.662187   16.170236   32.054017
 C   47.705125   15.733675   30.869501
 C   43.534951   14.995411   31.780135
 O   43.058003   15.706600   32.645079
 N   42.855033   14.023740   31.117395
 C   41.524353   13.672202   31.305895
 C   40.895272   12.573356   30.667434
 C   39.601786   12.615440   31.134978
 N   39.531565   13.669329   31.972054
 N   40.695510   14.340070   32.099493
 H   45.786398   11.137635   27.413688
 H   44.753120   10.857530   28.837926
 H   44.224332   11.978282   27.591988
 H   49.314774   13.634211   28.000152
 H   49.418170   15.027227   28.980326
 H   47.514339   17.237525   32.373174
 H   45.104375   16.730642   32.791780
 H   48.757187   15.931248   30.698199
 H   43.397297   13.493097   30.440490
 H   41.323509   11.867097   29.977140
 H   38.748417   11.990300   30.940559
 H   38.737457   13.984771   32.495313
