32 
3prz_ligand_xtb.xyz
 C   44.990422   11.655869   28.152225
 N   46.992486   12.944273   28.533785
 C   47.655243   13.908449   29.148459
 N   48.940923   14.065147   28.785077
 C   47.035824   14.735916   30.143817
 C   45.671677   14.444293   30.416630
 C   44.984420   15.217340   31.389614
 N   45.045675   13.442298   29.753286
 C   45.713459   12.752758   28.863769
 C   47.007264   16.508695   31.764727
 C   45.669251   16.226049   32.035713
 C   47.687047   15.773087   30.828796
 C   43.546402   15.042465   31.797839
 O   43.047590   15.755739   32.643005
 N   42.901926   14.042347   31.142689
 C   41.591036   13.656632   31.309120
 C   40.976813   12.601464   30.591342
 C   39.690805   12.565446   31.066146
 N   39.593878   13.541214   31.992329
 N   40.736675   14.211238   32.151030
 H   45.661424   11.172779   27.449461
 H   44.625077   10.927603   28.873381
 H   44.132570   12.064136   27.621818
 H   49.304806   13.448877   28.080360
 H   49.529210   14.768061   29.189564
 H   47.503454   17.307729   32.294578
 H   45.126106   16.800772   32.771897
 H   48.724125   15.996611   30.622710
 H   43.466102   13.529411   30.454194
 H   41.427594   11.978909   29.846844
 H   38.862625   11.932976   30.817568
 H   38.793090   13.800417   32.544226
