44 
3pty_ligand_aiqm1.xyz
 C   -2.753872   -0.489662    1.370260
 O   -1.621781   -0.443965    0.559052
 C   -3.508324   -1.788941    1.063810
 O   -3.439077   -2.748214    2.102393
 C   -4.942877   -1.330777    0.862706
 O   -5.686916   -2.121806   -0.038677
 C   -4.745089    0.071017    0.317021
 O   -3.645557    0.577148    1.088700
 C   -5.905924    1.012868    0.521935
 O   -5.586866    2.320552    0.089412
 C   -0.761385    0.653924    0.846948
 C    0.481178    0.513816   -0.004896
 C    1.473574    1.643281    0.246509
 C    2.718945    1.575525   -0.632841
 C    3.628151    0.389607   -0.336119
 C    4.876626    0.370800   -1.206372
 C    5.798461   -0.807100   -0.919240
 C    7.037391   -0.810445   -1.806547
 H   -2.473752   -0.409210    2.426549
 H   -3.127402   -2.185823    0.119143
 H   -2.568974   -3.148766    2.079345
 H   -5.438038   -1.281387    1.841125
 H   -5.828857   -2.976278    0.372826
 H   -4.475229    0.016098   -0.744806
 H   -6.192030    1.009099    1.583309
 H   -6.758930    0.680384   -0.067366
 H   -4.767621    2.569028    0.526414
 H   -0.501272    0.639515    1.914147
 H   -1.273777    1.598712    0.641005
 H    0.184747    0.507187   -1.057514
 H    0.940560   -0.457509    0.201288
 H    1.773573    1.634904    1.301593
 H    0.969724    2.599182    0.075706
 H    3.290216    2.499809   -0.506836
 H    2.415256    1.541697   -1.685675
 H    3.922531    0.413337    0.719568
 H    3.076474   -0.546309   -0.478860
 H    4.578590    0.347831   -2.260217
 H    5.431114    1.305524   -1.064269
 H    5.243858   -1.739909   -1.057560
 H    6.098798   -0.781330    0.132553
 H    7.683268   -1.660564   -1.585198
 H    7.620533    0.101522   -1.663033
 H    6.759787   -0.864372   -2.861190
