44 
3pty_ligand_ani-2x.xyz
 C   -2.746224   -0.542816    1.413748
 O   -1.604523   -0.503502    0.616126
 C   -3.530491   -1.814877    1.037845
 O   -3.496703   -2.848254    1.997206
 C   -4.957466   -1.322082    0.864828
 O   -5.726646   -2.049623   -0.062687
 C   -4.732693    0.094136    0.378080
 O   -3.612505    0.548850    1.161050
 C   -5.878531    1.062015    0.605570
 O   -5.543353    2.362713    0.183398
 C   -0.795628    0.648958    0.804047
 C    0.490100    0.461032    0.013895
 C    1.437039    1.652769    0.160463
 C    2.694703    1.567497   -0.710128
 C    3.604513    0.381419   -0.390724
 C    4.891906    0.382500   -1.212683
 C    5.812366   -0.795050   -0.897817
 C    7.099028   -0.777673   -1.719918
 H   -2.461997   -0.519039    2.480097
 H   -3.155394   -2.147194    0.060187
 H   -2.634608   -3.278210    1.939594
 H   -5.437444   -1.294406    1.856611
 H   -5.862929   -2.930010    0.311149
 H   -4.454260    0.076652   -0.686066
 H   -6.155556    1.042066    1.672749
 H   -6.749613    0.745850    0.023207
 H   -4.714226    2.582086    0.632286
 H   -0.575966    0.777106    1.877222
 H   -1.333453    1.548454    0.469719
 H    0.231334    0.312873   -1.042212
 H    0.978184   -0.461575    0.351117
 H    1.732621    1.750244    1.216465
 H    0.892294    2.573378   -0.092854
 H    3.269191    2.496970   -0.594836
 H    2.401147    1.517650   -1.769371
 H    3.857895    0.393849    0.680168
 H    3.068496   -0.561646   -0.567605
 H    4.640501    0.370655   -2.283818
 H    5.435369    1.323283   -1.038683
 H    5.272008   -1.734185   -1.079858
 H    6.057920   -0.783620    0.173187
 H    7.740828   -1.631577   -1.479476
 H    7.673320    0.137141   -1.531693
 H    6.879245   -0.814804   -2.793482
