44 
3pty_ligand_xtb.xyz
 C   -2.770493   -0.544895    1.578443
 O   -1.604202   -0.562968    0.816347
 C   -3.555985   -1.836575    1.253025
 O   -3.801978   -2.658578    2.361293
 C   -4.891577   -1.320638    0.683649
 O   -5.357598   -2.021874   -0.429946
 C   -4.555924    0.124716    0.300760
 O   -3.605115    0.541134    1.274761
 C   -5.745107    1.080459    0.338830
 O   -5.378422    2.381399   -0.029571
 C   -0.754031    0.555178    1.030343
 C    0.470426    0.408798    0.137010
 C    1.442209    1.570676    0.327630
 C    2.629251    1.523757   -0.635022
 C    3.576959    0.354707   -0.375142
 C    4.806037    0.410498   -1.279584
 C    5.755570   -0.759577   -1.033450
 C    6.980080   -0.696449   -1.938009
 H   -2.527147   -0.460071    2.652752
 H   -3.003329   -2.372407    0.468371
 H   -2.964062   -2.984158    2.708012
 H   -5.627872   -1.330344    1.501512
 H   -5.559142   -2.925740   -0.162181
 H   -4.102608    0.128741   -0.700528
 H   -6.173223    1.069374    1.351897
 H   -6.498110    0.747090   -0.377298
 H   -4.621342    2.631186    0.513776
 H   -0.460076    0.588558    2.090845
 H   -1.296657    1.479732    0.797325
 H    0.138860    0.366369   -0.901325
 H    0.954659   -0.538534    0.373629
 H    1.810886    1.570011    1.356021
 H    0.901803    2.507529    0.171929
 H    3.190807    2.456225   -0.538405
 H    2.258850    1.467692   -1.660824
 H    3.897295    0.375782    0.669348
 H    3.055449   -0.588519   -0.544966
 H    4.485446    0.400054   -2.324010
 H    5.339650    1.348543   -1.108246
 H    5.223984   -1.697940   -1.207798
 H    6.075467   -0.750432    0.011165
 H    7.642306   -1.537738   -1.747027
 H    7.534876    0.223248   -1.765085
 H    6.682931   -0.724020   -2.984156
