29 
3pwd_ligand_aiqm1.xyz
 C   23.377524    9.464914   16.183994
 N   25.255542    6.223467   16.363505
 C   24.181011    8.340393   15.829379
 O   25.514010    5.330166   17.139626
 C   24.433780    7.340319   16.771574
 O   25.688726    6.208688   15.194393
 C   22.854847    9.571883   17.430628
 C   23.088145    8.572422   18.420344
 C   23.885148    7.430180   18.112548
 C   24.073433    6.480911   19.138314
 C   22.522746    8.728928   19.698343
 C   22.712270    7.793009   20.699756
 C   23.504488    6.666025   20.378440
 O   23.750632    5.686717   21.295608
 C   23.248158    5.735280   22.577828
 C   22.428253    6.894073   22.922463
 C   22.158354    7.886081   22.048385
 O   24.634798    8.348675   14.582924
 O   23.511664    4.832336   23.323270
 C   21.306974    9.048379   22.473034
 H   23.213642   10.209670   15.417988
 H   22.244659   10.430150   17.693353
 H   24.658371    5.591544   18.994576
 H   21.927569    9.615717   19.874200
 H   22.050707    6.898992   23.935959
 H   25.164947    7.523422   14.482071
 H   20.327884    8.696030   22.797399
 H   21.763568    9.555913   23.322694
 H   21.153149    9.784414   21.688501
