29 
3pwd_ligand_xtb.xyz
 C   23.392395    9.471322   16.211113
 N   25.357714    6.324713   16.476193
 C   24.162796    8.339109   15.846862
 O   25.948734    5.721492   17.343824
 C   24.458615    7.366820   16.815239
 O   25.538263    6.090975   15.276091
 C   22.899989    9.606603   17.467631
 C   23.113902    8.610485   18.450935
 C   23.901644    7.464218   18.135527
 C   24.038373    6.478127   19.118973
 C   22.547708    8.744614   19.722840
 C   22.704101    7.776505   20.697200
 C   23.454305    6.622353   20.363794
 O   23.633082    5.611347   21.237636
 C   23.112181    5.640784   22.505081
 C   22.354666    6.826127   22.872631
 C   22.143558    7.857073   22.029302
 O   24.585224    8.308566   14.594325
 O   23.310356    4.696864   23.224245
 C   21.357447    9.059395   22.435467
 H   23.222383   10.208963   15.443719
 H   22.319922   10.477581   17.733429
 H   24.605124    5.578815   18.945420
 H   21.965756    9.629099   19.929327
 H   21.965250    6.823804   23.878647
 H   25.066428    7.456359   14.431230
 H   21.024096    8.964246   23.464812
 H   21.966317    9.957667   22.345259
 H   20.484671    9.174671   21.794350
