20 
3px8_ligand_aiqm1.xyz
 C    2.707536    3.399697    8.429098
 N    3.804214    3.118322    9.187931
 O   -0.710452    3.031689    8.488621
 C    0.393933    3.368062    8.126250
 N    1.539408    3.018947    8.836196
 O    2.686357    6.706167    3.263666
 C    0.600326    4.183281    6.874073
 N    2.953042    4.114505    7.289649
 O    0.505002    6.837953    2.743430
 C    1.908174    4.539441    6.498900
 N    2.201559    5.258629    5.427809
 C    1.147272    5.634247    4.699017
 N   -0.433185    4.569744    6.131640
 C   -0.164149    5.293438    5.044021
 C    1.388052    6.452964    3.467326
 H    3.624529    2.471972    9.937789
 H    4.691156    3.019825    8.729165
 H    2.728872    7.233429    2.455587
 H    3.874698    4.450861    7.058149
 H   -0.991344    5.614827    4.430681
