28 
3pxz_ligand_aiqm1.xyz
 N  101.649888   94.016683   29.420204
 C  102.909319   93.806430   29.029010
 N  103.164915   92.638451   28.389575
 N  103.939195   94.648425   29.187446
 C  103.613805   95.796203   29.789880
 C  104.722770   96.761883   29.996482
 C  104.819588   97.561084   31.143257
 O  103.921287   97.385535   32.157763
 C  105.857793   98.473712   31.249448
 C  106.814431   98.610476   30.241031
 C  106.736509   97.797020   29.113476
 O  107.616181   97.820826   28.069641
 C  105.694165   96.878438   29.007789
 N  102.392657   96.153054   30.181611
 C  101.455041   95.218657   29.964621
 N  100.181635   95.538611   30.303749
 C  108.682079   98.746905   28.160531
 H  102.468666   91.919686   28.461039
 H  104.128419   92.373161   28.298079
 H  104.122599   98.027207   32.842144
 H  105.928831   99.098682   32.133790
 H  107.601545   99.340641   30.359978
 H  105.645503   96.247900   28.130190
 H   99.529778   94.778100   30.364956
 H  100.063923   96.320765   30.922073
 H  108.313543   99.774791   28.211410
 H  109.311657   98.545369   29.031164
 H  109.266976   98.617905   27.254763
