28 
3pxz_ligand_xtb.xyz
 N  101.714787   93.948381   29.477003
 C  102.837978   93.977617   28.758616
 N  103.008749   93.012549   27.836026
 N  103.807906   94.884116   28.877384
 C  103.602222   95.822709   29.800698
 C  104.650323   96.836869   29.958146
 C  104.561754   97.881233   30.895381
 O  103.484293   97.995849   31.706954
 C  105.605102   98.795134   30.971866
 C  106.720719   98.706558   30.157044
 C  106.812608   97.676220   29.229353
 O  107.859582   97.482760   28.372238
 C  105.773614   96.756842   29.145451
 N  102.526123   95.888633   30.567730
 C  101.615531   94.933318   30.368718
 N  100.512542   94.978374   31.136061
 C  108.933072   98.388548   28.418818
 H  102.300023   92.313566   27.718809
 H  103.844383   93.011094   27.282477
 H  103.596656   98.765522   32.280407
 H  105.544066   99.602444   31.691575
 H  107.500195   99.444830   30.260985
 H  105.833350   95.953612   28.430312
 H   99.800108   94.282349   31.023543
 H  100.431044   95.716783   31.809388
 H  108.612441   99.408203   28.179264
 H  109.424061   98.383687   29.398016
 H  109.639466   98.048801   27.662837
