28 
3pxz_ligand_ani-2x.xyz
 N  101.661968   93.982841   29.412537
 C  102.922416   93.815050   29.002964
 N  103.207860   92.664984   28.344566
 N  103.927920   94.692213   29.153462
 C  103.606631   95.798321   29.829931
 C  104.702842   96.782826   30.035558
 C  104.811431   97.609289   31.170626
 O  103.916221   97.491815   32.179290
 C  105.862416   98.520141   31.248803
 C  106.812051   98.620562   30.236513
 C  106.721951   97.785327   29.128136
 O  107.598698   97.780549   28.088243
 C  105.675885   96.869941   29.047363
 N  102.393107   96.085047   30.289451
 C  101.464444   95.147801   30.036734
 N  100.218258   95.406039   30.491621
 C  108.665043   98.701409   28.139907
 H  102.536306   91.916190   28.402073
 H  104.180751   92.438217   28.215730
 H  104.152780   98.128103   32.865918
 H  105.946617   99.167732   32.122247
 H  107.613070   99.345179   30.333202
 H  105.621573   96.211465   28.185104
 H   99.464770   94.800424   30.209212
 H  100.016334   96.329009   30.838499
 H  108.300963   99.736874   28.168382
 H  109.308303   98.523164   29.011712
 H  109.242089   98.546086   27.227316
