29 
3py0_ligand_ani-2x.xyz
 N    4.143243   30.173473    7.045514
 C    5.226304   29.446921    6.694186
 N    5.336598   28.343068    7.394764
 C    4.268378   28.359315    8.242226
 C    3.500441   29.490201    8.051050
 C    2.299106   29.864966    8.748767
 C    1.490322   30.946626    8.625053
 C    1.630069   32.104295    7.684973
 O    2.472331   32.353070    6.830387
 N    0.556511   32.932920    7.954896
 C   -0.245415   32.424332    8.963266
 C   -1.402888   32.962317    9.508757
 C   -2.036021   32.263414   10.517413
 C   -1.521660   31.035111   10.982438
 O   -2.244352   30.452089   11.980218
 C   -1.774587   29.222381   12.481994
 C   -0.363999   30.494284   10.438813
 C    0.283401   31.205499    9.409904
 H    3.815249   31.060770    6.675064
 H    5.903777   29.772731    5.916522
 H    4.097474   27.558617    8.952266
 H    2.021181   29.126552    9.500480
 H    0.415579   33.795943    7.452159
 H   -1.804273   33.909057    9.154281
 H   -2.944170   32.639361   10.978421
 H   -0.772249   29.323137   12.917897
 H   -2.478253   28.924118   13.260783
 H   -1.750940   28.452351   11.700114
 H    0.019843   29.546080   10.808396
