85 
3q0z_ligand_xtb.xyz
 N   20.849872    3.421981  -15.570628
 C   20.326359    3.561823  -16.920020
 C   20.712644    4.946757  -17.479639
 N   22.023111    5.248588  -17.235867
 C   22.706738    6.420900  -17.525836
 O   19.967828    5.600290  -18.166364
 C   22.174038    7.437665  -18.316741
 C   22.919727    8.566790  -18.574187
 C   24.214952    8.726900  -18.069451
 C   24.736820    7.699411  -17.276215
 C   23.997000    6.571113  -17.010000
 C   24.945359    9.937126  -18.379291
 C   26.209486   10.221761  -18.033422
 C   26.949316   11.447502  -18.382477
 O   26.237114   12.499447  -18.837988
 C   18.796932    3.356446  -16.988605
 C   20.929143    2.476511  -17.842639
 C   18.582546    2.046528  -17.743924
 C   19.762185    2.011917  -18.709763
 O   28.144834   11.530829  -18.269998
 C   20.699983    4.429836  -14.656779
 C   21.046253    4.064315  -13.260043
 C   20.415402    4.784519  -12.231510
 C   20.645595    4.506004  -10.907774
 C   21.964903    3.071468  -12.959995
 N   23.061068    1.898658  -11.055388
 C   22.211492    2.800925  -11.622410
 C   21.544945    3.488808  -10.571956
 C   22.016491    2.935112   -9.345036
 C   22.938337    1.967239   -9.686528
 C   21.542684    3.259066   -7.962308
 C   23.707070    1.069928   -8.835661
 C   21.919448    4.688908   -7.555780
 C   21.467942    4.973918   -6.127088
 C   19.963011    4.764476   -5.990397
 C   19.585101    3.342220   -6.393163
 C   20.028503    3.056109   -7.824481
 O   20.349020    5.546833  -14.984547
 C   24.321020    1.561963   -7.681802
 C   24.981237    0.725296   -6.805105
 C   25.038859   -0.635703   -7.061706
 C   24.463694   -1.140391   -8.210903
 C   23.816654   -0.301773   -9.114677
 C   23.896223    0.935675  -11.709224
 N   23.249842   -0.891507  -10.256750
 C   23.273292   -0.448798  -11.538176
 O   22.818621   -1.095281  -12.453859
 H   20.882975    2.476014  -15.218664
 H   22.508885    4.621516  -16.607635
 H   21.177037    7.336179  -18.709887
 H   22.490276    9.347291  -19.186240
 H   25.727813    7.788304  -16.860177
 H   24.414038    5.790258  -16.388663
 H   24.372818   10.645588  -18.972437
 H   26.815913    9.512161  -17.491901
 H   25.287738   12.322589  -18.840690
 H   18.369691    4.191223  -17.545624
 H   18.356987    3.350773  -15.992161
 H   21.290909    1.645549  -17.232030
 H   21.763546    2.852512  -18.434276
 H   17.621798    2.018429  -18.253822
 H   18.634633    1.195597  -17.061169
 H   19.934195    1.026601  -19.140193
 H   19.596472    2.725427  -19.517175
 H   19.731977    5.568024  -12.520755
 H   20.140138    5.075371  -10.144228
 H   22.490679    2.537170  -13.738064
 H   22.026741    2.565241   -7.265600
 H   21.447677    5.398389   -8.236610
 H   23.000868    4.822566   -7.640618
 H   21.728212    5.998963   -5.854855
 H   21.989684    4.302548   -5.440192
 H   19.438733    5.474620   -6.633960
 H   19.652875    4.954825   -4.960905
 H   18.505145    3.205174   -6.307236
 H   20.066757    2.633770   -5.714454
 H   19.775637    2.028677   -8.096984
 H   19.498424    3.719905   -8.506913
 H   24.284822    2.622958   -7.490940
 H   25.447668    1.130956   -5.920696
 H   25.539081   -1.300379   -6.374562
 H   24.514788   -2.198615   -8.423925
 H   24.897021    0.944232  -11.260325
 H   23.972288    1.162756  -12.772541
 H   22.938168   -1.849771  -10.148188
