85 
3q0z_ligand_ani-2x.xyz
 N   20.571506    3.401282  -15.487484
 C   20.159290    3.596449  -16.869607
 C   20.691712    4.925722  -17.456698
 N   21.908879    5.331462  -16.986779
 C   22.695194    6.421182  -17.411147
 O   20.060448    5.505877  -18.324408
 C   22.285847    7.322493  -18.397747
 C   23.129824    8.364958  -18.750853
 C   24.383049    8.541639  -18.157757
 C   24.770486    7.639055  -17.163148
 C   23.938649    6.594515  -16.795129
 C   25.232912    9.663071  -18.591144
 C   26.542913    9.793243  -18.357494
 C   27.388212   10.965847  -18.725035
 O   26.767214   12.137727  -18.991652
 C   18.636268    3.543438  -17.092220
 C   20.658638    2.447697  -17.757456
 C   18.444646    3.113140  -18.561192
 C   19.809979    2.556742  -19.031996
 O   28.586610   10.886333  -18.790258
 C   20.135890    4.228082  -14.483888
 C   20.591055    3.874343  -13.104908
 C   19.948246    4.529519  -12.031312
 C   20.277561    4.260018  -10.724081
 C   21.604902    2.964042  -12.855626
 N   22.876791    1.834654  -11.021612
 C   21.930854    2.691776  -11.524923
 C   21.283403    3.312207  -10.438856
 C   21.873820    2.793927   -9.241919
 C   22.892974    1.938172   -9.648290
 C   21.391868    3.085654   -7.841230
 C   23.920771    1.279502   -8.830843
 C   21.669166    4.541614   -7.413635
 C   21.241548    4.794714   -5.967772
 C   19.766922    4.445665   -5.753041
 C   19.480075    3.003720   -6.175991
 C   19.896861    2.757688   -7.626593
 O   19.441368    5.206830  -14.713152
 C   24.481964    1.964445   -7.744401
 C   25.399235    1.375691   -6.890620
 C   25.768842    0.050098   -7.098544
 C   25.235524   -0.649178   -8.169106
 C   24.346189   -0.047943   -9.058276
 C   23.747121    0.991148  -11.800052
 N   23.873697   -0.835347  -10.126951
 C   23.624368   -0.484925  -11.435532
 O   23.351841   -1.331372  -12.262530
 H   20.892083    2.476785  -15.240267
 H   22.298142    4.786252  -16.231794
 H   21.320298    7.205611  -18.872190
 H   22.802288    9.059950  -19.521653
 H   25.722662    7.762541  -16.653779
 H   24.264373    5.904903  -16.019469
 H   24.709840   10.412913  -19.190019
 H   27.118322    8.976786  -17.932059
 H   25.825999   12.079709  -18.780251
 H   18.172906    4.501722  -16.855575
 H   18.220906    2.793378  -16.410176
 H   20.446547    1.499675  -17.244113
 H   21.737287    2.501478  -17.943773
 H   18.151583    3.967441  -19.173091
 H   17.649929    2.362560  -18.636232
 H   19.719810    1.594094  -19.545567
 H   20.273537    3.260923  -19.727923
 H   19.178599    5.256549  -12.268885
 H   19.763459    4.782455   -9.921020
 H   22.170960    2.500120  -13.661185
 H   21.932149    2.428979   -7.139189
 H   21.127112    5.219753   -8.087064
 H   22.734764    4.771022   -7.543786
 H   21.432123    5.838840   -5.691559
 H   21.858607    4.175656   -5.299223
 H   19.144993    5.126222   -6.353225
 H   19.482437    4.604118   -4.705677
 H   18.417244    2.767574   -6.044922
 H   20.036566    2.316862   -5.521311
 H   19.705961    1.715233   -7.906567
 H   19.279603    3.377054   -8.289686
 H   24.200773    3.001564   -7.576289
 H   25.811626    1.942091   -6.061829
 H   26.473588   -0.438077   -6.431422
 H   25.525993   -1.684308   -8.342501
 H   24.790671    1.314473  -11.685807
 H   23.474870    1.081534  -12.851360
 H   23.902057   -1.839551   -9.998077
