17 
3q2a_ligand_xtb.xyz
 C  -11.282928   13.264599  -20.039021
 O  -11.516260   12.304463  -19.352644
 O  -11.945736   13.434929  -21.204198
 C  -10.276350   14.290572  -19.680297
 C  -10.183491   15.544258  -20.286962
 C   -9.218763   16.445170  -19.893809
 C   -8.308443   16.123478  -18.881570
 C   -8.407852   14.869940  -18.266398
 C   -9.377567   13.978641  -18.656300
 N   -7.384406   17.037316  -18.459872
 H  -11.640485   14.213505  -21.686547
 H  -10.879043   15.851797  -21.058136
 H   -9.161105   17.415864  -20.365078
 H   -7.715046   14.613023  -17.478479
 H   -9.462704   13.011804  -18.184543
 H   -7.197222   17.833128  -19.044585
 H   -6.627298   16.715313  -17.882559
