57 
3q8d_ligand_ani-2x.xyz
 N   -2.233293    0.127909   -0.723807
 C   -1.369687    0.746447    0.333252
 C   -1.757112   -0.067272    1.582794
 O   -2.940173   -0.110744    1.906425
 C   -1.560848    2.274715    0.479569
 C   -0.600547    2.816818    1.551015
 C   -3.002263    2.726908    0.740994
 C   -0.306810    4.312511    1.422552
 N   -0.805239   -0.794727    2.234362
 C    0.505159   -1.134284    1.691985
 C    0.436386   -1.726846    0.267411
 O   -0.614098   -1.985740   -0.311588
 C    1.052113   -2.155845    2.711367
 C   -0.210880   -2.833713    3.245905
 C   -1.216564   -1.686680    3.324791
 N    1.653932   -1.913790   -0.302814
 C    1.828177   -2.431025   -1.640631
 C    2.747225   -3.639206   -1.681781
 O    2.802945   -4.415361   -2.603286
 C    2.376990   -1.370961   -2.622687
 C    1.500693   -0.143100   -2.718499
 C    0.271582   -0.199126   -3.380562
 C    1.895805    1.070146   -2.150496
 C   -0.516019    0.938074   -3.528159
 C    1.103365    2.206544   -2.276992
 C   -0.097826    2.147651   -2.976927
 O    3.553440   -3.727803   -0.604009
 H   -1.838712   -0.825269   -0.885654
 H   -3.177421    0.043213   -0.298502
 H   -2.214320    0.671219   -1.602980
 H   -0.334898    0.576764    0.040891
 H   -1.254023    2.688480   -0.492317
 H    0.349890    2.266578    1.502566
 H   -1.021613    2.600841    2.542056
 H   -3.398640    2.260355    1.647122
 H   -3.671409    2.475563   -0.089255
 H   -3.045769    3.814320    0.867187
 H    0.174691    4.536263    0.462327
 H   -1.215978    4.920329    1.487596
 H    0.367884    4.647044    2.217415
 H    1.153522   -0.246867    1.654830
 H    1.764789   -2.861427    2.269670
 H    1.566056   -1.617145    3.513781
 H   -0.052429   -3.328005    4.208138
 H   -0.563678   -3.583344    2.529209
 H   -1.169921   -1.152203    4.282037
 H   -2.252932   -1.992615    3.163587
 H    2.479097   -1.762345    0.256931
 H    0.848277   -2.761794   -1.994853
 H    2.476680   -1.852955   -3.602267
 H    3.388817   -1.087309   -2.308229
 H   -0.067396   -1.141829   -3.804209
 H    2.839595    1.124350   -1.613222
 H   -1.460331    0.879561   -4.064773
 H    1.428049    3.144909   -1.830012
 H   -0.707696    3.040091   -3.096407
 H    4.113264   -4.508277   -0.754347
