57 
3q8d_ligand_aiqm1.xyz
 N   -2.124004    0.331758   -0.814059
 C   -1.324518    0.840687    0.357629
 C   -1.784698   -0.036540    1.534819
 O   -2.972487   -0.034250    1.820419
 C   -1.461288    2.357540    0.616455
 C   -0.614267    2.695334    1.852168
 C   -2.898486    2.863221    0.745353
 C   -0.345101    4.188205    1.999130
 N   -0.857840   -0.782586    2.145577
 C    0.489278   -1.052347    1.658558
 C    0.490932   -1.620884    0.226774
 O   -0.541157   -1.772510   -0.428644
 C    1.026686   -2.043027    2.708450
 C   -0.220567   -2.793450    3.171157
 C   -1.269617   -1.690324    3.244832
 N    1.703398   -1.861272   -0.268111
 C    1.909320   -2.427285   -1.592115
 C    2.862248   -3.605285   -1.565573
 O    3.066837   -4.302074   -2.518346
 C    2.418876   -1.381118   -2.595286
 C    1.442836   -0.252368   -2.822425
 C    0.281287   -0.460906   -3.574941
 C    1.699767    1.033652   -2.341384
 C   -0.578969    0.595531   -3.873805
 C    0.841481    2.093712   -2.634421
 C   -0.300290    1.880841   -3.409144
 O    3.460639   -3.763581   -0.368962
 H   -1.743960   -0.615618   -0.992463
 H   -3.109080    0.282432   -0.543269
 H   -2.008015    0.911424   -1.638836
 H   -0.290297    0.654695    0.108299
 H   -1.000345    2.846008   -0.250832
 H    0.344424    2.165810    1.777711
 H   -1.113681    2.312951    2.746167
 H   -3.436702    2.329278    1.525040
 H   -3.464108    2.781251   -0.186363
 H   -2.888952    3.916757    1.007204
 H    0.152598    4.589412    1.114419
 H   -1.264984    4.750759    2.148254
 H    0.294827    4.372697    2.858469
 H    1.098595   -0.145032    1.637888
 H    1.808007   -2.695574    2.322481
 H    1.446666   -1.466980    3.530662
 H   -0.076129   -3.284358    4.127722
 H   -0.506244   -3.544024    2.432591
 H   -1.244296   -1.156882    4.193903
 H   -2.288375   -2.021802    3.062721
 H    2.504135   -1.770499    0.335888
 H    0.950039   -2.812736   -1.933831
 H    2.616307   -1.893260   -3.534144
 H    3.366337   -0.977370   -2.234050
 H    0.072879   -1.445372   -3.977241
 H    2.610503    1.218994   -1.784063
 H   -1.436191    0.416379   -4.509472
 H    1.087179    3.090118   -2.291007
 H   -0.931846    2.711857   -3.690080
 H    4.050308   -4.521986   -0.459375
