36 
3qar_ligand_xtb.xyz
 N   19.679659   12.317609   24.398079
 N   21.687630   12.791578   23.289036
 C   21.478741   15.932578   21.439237
 C   22.600873   16.379177   20.707728
 C   23.210825   14.536461   21.594687
 C   20.303804   16.653758   21.472814
 C   20.267404   17.840887   20.756283
 C   22.547638   17.567536   19.997320
 C   25.828450   11.935094   22.132579
 C   27.081877   12.006080   21.579249
 N   27.122712   13.145816   20.860569
 N   25.974093   13.824714   20.909365
 C   25.174593   13.105388   21.677518
 N   23.880418   13.440225   21.997307
 N   23.641650   15.487126   20.833888
 C   21.367112   18.288170   20.033496
 N   21.871694   14.724723   22.023507
 C   21.125569   13.916303   22.824945
 N   19.882362   14.289451   23.100939
 C   20.923284   12.034013   24.066745
 C   21.524791   10.776886   24.596290
 C   19.199801   13.460969   23.888942
 N   17.940033   13.791487   24.197725
 H   19.453601   16.304819   22.033560
 H   19.361900   18.429579   20.761853
 H   23.405720   17.905605   19.440055
 H   25.425949   11.172393   22.766027
 H   27.920934   11.343586   21.646132
 H   23.339495   12.816696   22.601601
 H   21.295997   19.218681   19.489210
 H   20.798506   10.258219   25.213387
 H   21.830525   10.141342   23.767678
 H   22.409780   11.014527   25.183038
 H   17.407603   13.181709   24.790325
 H   17.548301   14.640585   23.834354
 H   27.887678   13.516231   20.321530
