36 
3qar_ligand_aiqm1.xyz
 N   19.509447   12.225369   24.244234
 N   21.673659   12.801565   23.463317
 C   21.565527   15.961416   21.592871
 C   22.728327   16.417642   20.961103
 C   23.317088   14.588923   21.894048
 C   20.374226   16.676766   21.550691
 C   20.389935   17.873163   20.833831
 C   22.731049   17.610844   20.247884
 C   26.359738   12.613195   22.372093
 C   27.179765   12.258315   21.323940
 N   26.484806   12.508500   20.192715
 N   25.257194   13.010966   20.416297
 C   25.182744   13.079062   21.743130
 N   24.040351   13.552963   22.395130
 N   23.798959   15.548549   21.170182
 C   21.543771   18.332867   20.191601
 N   21.940155   14.744941   22.209104
 C   21.119001   13.889101   22.903091
 N   19.827484   14.215279   22.957195
 C   20.811355   12.012422   24.117347
 C   21.384503   10.786068   24.751699
 C   19.077346   13.348614   23.645033
 N   17.765342   13.625827   23.773973
 H   19.479839   16.333955   22.045309
 H   19.482846   18.460744   20.774774
 H   23.632488   17.954205   19.762037
 H   26.564809   12.555060   23.426684
 H   28.180664   11.863926   21.295668
 H   23.526728   12.905919   22.985521
 H   21.512199   19.266732   19.644871
 H   20.600002   10.230370   25.258414
 H   21.852115   10.164690   23.988801
 H   22.160989   11.071045   25.460499
 H   17.177099   12.915831   24.168734
 H   17.364232   14.356989   23.218233
 H   26.805216   12.428180   19.246947
