36 
3qar_ligand_ani-2x.xyz
 N   19.571835   12.225836   24.293676
 N   21.715061   12.939501   23.581037
 C   21.532192   15.984428   21.562363
 C   22.635560   16.424931   20.822965
 C   23.232529   14.520805   21.583975
 C   20.385659   16.767501   21.722274
 C   20.371135   17.998759   21.086820
 C   22.601484   17.669471   20.183914
 C   25.935030   11.966505   22.061191
 C   27.077705   11.916709   21.300375
 N   26.944648   12.870591   20.354677
 N   25.788494   13.555897   20.433610
 C   25.173177   13.008281   21.474036
 N   23.911791   13.385563   21.923625
 N   23.666682   15.494524   20.847818
 C   21.464163   18.445186   20.322705
 N   21.911632   14.720547   22.060538
 C   21.114585   13.855349   22.811871
 N   19.798447   14.006020   22.710540
 C   20.897295   12.189299   24.331459
 C   21.550195   11.214443   25.263798
 C   19.083084   13.141933   23.440272
 N   17.737557   13.199099   23.301884
 H   19.548547   16.418360   22.313788
 H   19.495409   18.634741   21.179051
 H   23.454512   18.006478   19.601184
 H   25.672719   11.357701   22.914352
 H   27.959551   11.291844   21.350724
 H   23.469584   12.826263   22.648349
 H   21.416936   19.415702   19.836557
 H   20.793032   10.737980   25.889425
 H   22.081707   10.449061   24.688424
 H   22.283521   11.731264   25.890451
 H   17.178745   12.710314   23.982701
 H   17.349710   13.999595   22.830995
 H   27.597089   13.109519   19.625576
