35 
3qcq_ligand_xtb.xyz
 C  -40.423822   16.381140   12.232107
 C  -41.572296   17.053141   11.933177
 C  -42.915655   15.028548   12.009156
 C  -44.209358   18.467432   11.905029
 C  -40.497256   14.994939   12.443858
 C  -42.821899   16.386746   11.825724
 C  -41.753573   14.309455   12.329039
 C  -44.039881   17.148148   11.509414
 C  -45.424397   19.081242   11.572018
 C  -39.581177   13.984868   12.755549
 C  -46.102137   17.162555   10.562983
 C  -45.394168   20.815477   14.266253
 C  -45.040312   21.190636   12.825582
 N  -44.992351   16.489993   10.843919
 N  -46.372515   18.421078   10.902853
 N  -40.296402   12.844899   12.805886
 N  -41.606149   13.003221   12.557777
 N  -38.236699   14.043910   13.057748
 N  -47.041079   16.512010    9.827099
 N  -45.722364   20.379693   11.849166
 H  -39.476170   16.897379   12.304142
 H  -41.532874   18.115487   11.744227
 H  -43.864527   14.528118   11.913635
 H  -43.453819   18.981833   12.471975
 H  -44.856569   21.452086   14.964076
 H  -46.461988   20.933891   14.436783
 H  -45.127819   19.779002   14.459836
 H  -45.311872   22.232790   12.636752
 H  -43.962999   21.093068   12.670609
 H  -37.716914   13.196145   12.883701
 H  -37.777747   14.868050   12.700701
 H  -46.943836   15.515267    9.750065
 H  -47.960003   16.915487    9.792296
 H  -46.687309   20.609093   11.661473
 H  -39.950068   11.924175   13.028394
