40 
3qcs_ligand_aiqm1.xyz
 C  -40.644957   16.318447   12.500910
 C  -41.749810   17.020041   12.124382
 C  -43.119085   14.997991   11.931452
 C  -44.317149   18.500306   11.804755
 C  -40.750891   14.901590   12.615820
 C  -43.002219   16.363638   11.841737
 C  -41.984814   14.250074   12.332217
 C  -44.188281   17.162806   11.451380
 C  -45.495700   19.160089   11.414939
 C  -39.884907   13.865598   12.964747
 C  -46.213193   17.235661   10.444645
 C  -44.891440   21.201155   12.626165
 C  -47.099139   20.955132   11.625417
 C  -45.049880   22.702395   12.435361
 C  -47.134912   22.461549   11.460880
 N  -45.143557   16.509790   10.771264
 N  -46.453640   18.515069   10.737549
 N  -40.618685   12.741054   12.873317
 N  -41.889181   12.914535   12.488053
 N  -45.714469   20.496616   11.653522
 N  -38.543941   13.791128   13.382667
 N  -47.167386   16.603994    9.691020
 O  -46.403708   23.098998   12.495035
 H  -39.706237   16.824027   12.696660
 H  -41.687393   18.094298   12.002117
 H  -44.059312   14.517873   11.697934
 H  -43.555784   18.990235   12.385920
 H  -45.159436   20.920632   13.652227
 H  -43.842886   20.951367   12.466024
 H  -47.614144   20.665340   12.549428
 H  -47.600144   20.468365   10.793473
 H  -44.529846   23.234604   13.231165
 H  -44.620339   22.997815   11.469640
 H  -46.718190   22.745584   10.486558
 H  -48.158008   22.828665   11.531560
 H  -37.915551   13.699283   12.595485
 H  -38.287597   14.620251   13.897261
 H  -47.131891   15.600121    9.707847
 H  -48.077989   17.027651    9.696816
 H  -40.285311   11.814234   13.077650
