40 
3qcs_ligand_xtb.xyz
 C  -40.713155   16.427885   12.605947
 C  -41.848108   17.122220   12.306170
 C  -43.115086   15.093467   11.871674
 C  -44.520908   18.465477   12.245459
 C  -40.756554   15.025316   12.558516
 C  -43.053647   16.463877   11.945083
 C  -41.967042   14.349471   12.184867
 C  -44.260458   17.245914   11.637909
 C  -45.709658   19.123767   11.891928
 C  -39.841389   13.991929   12.785717
 C  -46.204818   17.399769   10.487116
 C  -45.227549   21.215385   13.127560
 C  -47.268283   20.985571   11.916084
 C  -44.796154   22.307975   12.138324
 C  -46.795109   22.088466   10.963373
 N  -45.108143   16.704730   10.759058
 N  -46.546247   18.577436   11.004190
 N  -40.514757   12.849254   12.552530
 N  -41.795682   13.026439   12.192555
 N  -46.120211   20.292213   12.465481
 N  -38.540397   14.019436   13.241490
 N  -47.039840   16.883029    9.547414
 O  -45.914742   22.983555   11.612314
 H  -39.798598   16.939692   12.872892
 H  -41.827909   18.201938   12.314821
 H  -44.029254   14.601568   11.585078
 H  -43.848003   18.856598   12.987754
 H  -45.775799   21.679450   13.955273
 H  -44.355075   20.705143   13.528683
 H  -47.829089   21.429801   12.744806
 H  -47.884254   20.261295   11.386262
 H  -44.186898   23.066256   12.633429
 H  -44.215924   21.847079   11.322753
 H  -46.291052   21.625341   10.101546
 H  -47.633760   22.691481   10.612669
 H  -37.973995   13.224785   12.983178
 H  -38.075915   14.901767   13.090123
 H  -46.900766   15.917650    9.306674
 H  -47.966780   17.265862    9.492879
 H  -40.159992   11.909713   12.645422
