25 
3qfz_ligand_ani-2x.xyz
 C   -0.773906    0.810627   -1.214260
 C   -1.716715   -0.190308   -0.551046
 O   -2.459073    0.494337    0.446698
 C   -0.884032   -1.335024    0.053671
 O   -0.128758   -2.010345   -0.937299
 C    0.115237   -0.807469    1.087741
 O   -0.592620   -0.471258    2.297704
 C    0.858489    0.460333    0.652770
 N    0.013461    1.448425   -0.128130
 C    2.110065    0.215083   -0.183508
 O    2.466923    1.514116   -0.657665
 H   -0.111246    0.297080   -1.908622
 H   -1.341585    1.564231   -1.759634
 H   -2.423026   -0.596253   -1.288163
 H   -2.113601    0.199866    1.307358
 H   -1.558522   -2.042934    0.568445
 H   -0.746925   -2.380493   -1.580687
 H    0.855581   -1.591588    1.286807
 H   -0.741347   -1.281153    2.803462
 H    1.158142    0.959051    1.573099
 H    0.708247    2.123941   -0.512839
 H   -0.682366    1.881101    0.509941
 H    2.904943   -0.217968    0.440080
 H    1.894757   -0.473331   -1.012771
 H    3.187680    1.430234   -1.292950
