25 
3qfz_ligand_aiqm1.xyz
 C   -0.798862    0.891702   -1.145499
 C   -1.703680   -0.210402   -0.603426
 O   -2.610854    0.376160    0.305687
 C   -0.856643   -1.326535    0.020725
 O   -0.057390   -1.937582   -0.975829
 C    0.099604   -0.781770    1.092767
 O   -0.680512   -0.319481    2.193976
 C    0.919490    0.424593    0.639252
 N    0.001961    1.454738    0.007991
 C    2.062321    0.142497   -0.324468
 O    2.499373    1.428406   -0.749605
 H   -0.123247    0.515517   -1.906950
 H   -1.403120    1.692620   -1.556113
 H   -2.263115   -0.624630   -1.436797
 H   -2.434562    0.056858    1.196485
 H   -1.523912   -2.037567    0.500998
 H   -0.514316   -2.695759   -1.336639
 H    0.782341   -1.570756    1.386280
 H   -0.580730   -0.909667    2.938430
 H    1.333129    0.895425    1.525474
 H    0.606498    2.219243   -0.309890
 H   -0.663756    1.818865    0.699278
 H    2.838567   -0.392693    0.214144
 H    1.736970   -0.453622   -1.172311
 H    3.334241    1.344142   -1.203760
