35 
3qgw_ligand_ani-2x.xyz
 C   34.395632   50.885649   14.554078
 N   43.143945   51.160118   13.903636
 O   35.820065   49.916870    9.956850
 C   33.752545   51.799828   15.390145
 N   35.989154   50.424259   12.773425
 O   35.943766   52.511532   13.785439
 C   32.703595   51.377678   16.196050
 N   38.082104   49.818041   10.073249
 C   32.300026   50.043954   16.168982
 C   32.945515   49.132998   15.336036
 C   33.995369   49.550812   14.525611
 C   35.519941   51.370175   13.692786
 C   39.285346   50.014783   10.719343
 C   39.397347   50.764431   11.828431
 C   38.162557   51.525240   12.272567
 C   36.931432   50.729252   11.957020
 C   36.834445   50.142752   10.585284
 C   42.291186   52.179544   13.781551
 C   42.766791   50.006544   13.347903
 C   41.572365   49.819896   12.661525
 C   40.679823   50.891440   12.538582
 C   41.070065   52.098261   13.128118
 H   34.091279   52.831737   15.392247
 H   32.199649   52.087102   16.847344
 H   38.062915   49.329251    9.189734
 H   31.479422   49.712891   16.800010
 H   32.629820   48.092968   15.317134
 H   34.513137   48.854715   13.872870
 H   40.148131   49.568314   10.231538
 H   38.089151   52.482944   11.728785
 H   38.207471   51.766064   13.342402
 H   42.599059   53.118646   14.237883
 H   43.463715   49.176098   13.450180
 H   41.337077   48.838471   12.259207
 H   40.425058   52.970742   13.070156
