30 
3qi4_ligand_ani-2x.xyz
 N   44.064750   15.039664   46.279514
 C   44.506599   16.070184   45.473699
 N   44.499407   17.221023   46.074657
 C   44.031801   16.950740   47.343244
 C   43.762783   15.618245   47.477768
 N   43.275019   15.006079   48.597054
 C   43.060972   15.782612   49.735670
 N   43.327534   17.150014   49.617183
 C   43.808327   17.840011   48.469892
 O   43.988773   19.041657   48.504543
 O   42.661967   15.305464   50.780382
 C   43.077924   17.932888   50.828689
 C   42.975449   13.579786   48.619171
 C   44.218452   12.680256   48.689803
 C   45.022290   12.922632   49.969303
 C   43.789602   11.215943   48.575700
 H   43.983379   14.063138   46.036180
 H   44.817832   15.900052   44.449890
 H   43.307769   18.971270   50.599421
 H   42.034679   17.832130   51.132153
 H   43.709589   17.575999   51.644009
 H   42.343331   13.417955   49.494289
 H   42.385688   13.335110   47.726963
 H   44.861521   12.914972   47.830264
 H   45.803566   12.162043   50.079348
 H   45.510725   13.901479   49.965458
 H   44.373156   12.872093   50.852521
 H   44.659785   10.550974   48.593043
 H   43.136342   10.932815   49.411142
 H   43.243990   11.031770   47.643049
