58 
3qj9_ligand_dft.xyz
 N   -0.907927    1.901103   -0.544399
 N    1.136202    2.953075   -0.806359
 C   -0.201299    3.040812   -0.512446
 C   -2.935403    0.716751   -0.315959
 C   -2.508807   -0.530865   -0.635230
 C   -4.677949   -0.562176   -0.011608
 C   -3.636367   -1.398155   -0.437762
 C   -5.139675   -3.249933   -0.263926
 C    1.742837    1.633740   -0.874225
 C    3.130201    2.183401    1.151153
 C    2.057293    3.971232   -0.305143
 C    2.474028   -2.437873    0.431087
 C    1.901010   -3.696817    0.504995
 C    0.551118   -3.772974    0.858807
 C    0.391931   -1.353823    1.054260
 C    4.639322   -3.198380   -1.895306
 C    4.823079   -2.857205   -0.419078
 N    3.753423   -2.024726    0.091059
 C    3.819044   -0.637404    0.081771
 O    4.773249    0.034573   -0.274011
 C   -0.190543   -2.622617    1.123895
 C    1.732021   -1.280578    0.711323
 N    2.586453   -0.192328    0.547646
 C    2.135738    1.189228    0.542197
 C    2.541350    3.601443    1.102974
 N   -0.698412    4.259403   -0.221965
 C   -2.002596    4.309811    0.020625
 C   -2.838709    3.199200   -0.001940
 C   -2.216223    1.987488   -0.293113
 C   -3.873935   -2.772735   -0.564764
 C   -6.165202   -2.384569    0.157722
 C   -5.952861   -1.019496    0.293155
 O   -4.252912    0.726923    0.060426
 H   -1.511917   -0.790269   -0.957544
 H   -5.348132   -4.311296   -0.356159
 H    1.041989    0.928845   -1.318646
 H    2.640215    1.691659   -1.500506
 H    3.354957    1.896304    2.184061
 H    4.067685    2.139121    0.589389
 H    2.904428    4.018744   -0.999707
 H    1.550593    4.935019   -0.311058
 H    2.474692   -4.591416    0.284022
 H    0.073869   -4.745807    0.921815
 H   -0.199387   -0.461778    1.232410
 H    3.687252   -3.711938   -2.063999
 H    4.650386   -2.283263   -2.494440
 H    5.448613   -3.849220   -2.240859
 H    5.751392   -2.302433   -0.265834
 H    4.867728   -3.763758    0.193990
 H   -1.242795   -2.705317    1.378797
 H    1.225338    1.204762    1.151741
 H    3.290492    4.327476    1.437417
 H    1.689352    3.678206    1.791579
 H   -2.403727    5.295258    0.250284
 H   -3.898249    3.266825    0.206048
 H   -3.083531   -3.442783   -0.888921
 H   -7.145039   -2.794110    0.382658
 H   -6.733493   -0.341532    0.619481
