58 
3qj9_ligand_aiqm1.xyz
 N    1.509939   -1.144498   -1.405907
 N   -0.384903   -1.769157   -2.574108
 C    0.904500   -2.029456   -2.221399
 C    3.435379   -0.409518   -0.232126
 C    2.929729    0.670732    0.410290
 C    5.125433    0.411839    0.878878
 C    4.026484    1.239716    1.154819
 C    5.459680    2.563061    2.544270
 C   -1.123436   -0.723875   -1.891000
 C   -2.768375   -2.447989   -1.102586
 C   -1.244665   -2.847867   -3.059131
 C   -2.887468    1.364174    1.583276
 C   -2.673441    2.149337    2.703024
 C   -1.552841    1.851837    3.486638
 C   -0.907461    0.020023    2.018183
 C   -4.436844    3.716823   -0.027887
 C   -4.937629    2.372698    0.483313
 N   -3.873618    1.399251    0.611743
 C   -3.631675    0.430226   -0.342085
 O   -4.279828    0.238811   -1.359879
 C   -0.688722    0.812748    3.150555
 C   -2.022446    0.313021    1.249940
 N   -2.517137   -0.271091    0.090334
 C   -1.840009   -1.314219   -0.668164
 C   -1.981357   -3.500494   -1.886579
 N    1.478437   -3.130245   -2.742295
 C    2.763894   -3.323321   -2.440799
 C    3.498157   -2.469156   -1.632446
 C    2.797324   -1.374518   -1.126645
 C    4.201623    2.341087    2.006420
 C    6.538907    1.713148    2.249738
 C    6.394335    0.618663    1.409309
 O    4.771711   -0.599845    0.033229
 H    1.903793    0.989977    0.343928
 H    5.617164    3.407189    3.201840
 H   -0.434306    0.060216   -1.585801
 H   -1.864561   -0.300399   -2.571717
 H   -3.252378   -2.888496   -0.225016
 H   -3.549597   -2.033872   -1.738654
 H   -1.968341   -2.404932   -3.746967
 H   -0.633364   -3.558691   -3.607217
 H   -3.339768    2.958909    2.966611
 H   -1.357094    2.445726    4.368288
 H   -0.233834   -0.786088    1.761210
 H   -3.687032    4.142851    0.640379
 H   -3.993127    3.602096   -1.016250
 H   -5.266161    4.422184   -0.106166
 H   -5.652942    1.938157   -0.213008
 H   -5.425850    2.480780    1.455070
 H    0.170222    0.610564    3.773647
 H   -1.077210   -1.729904   -0.006094
 H   -2.655876   -4.275171   -2.255923
 H   -1.247904   -3.989036   -1.235355
 H    3.222429   -4.209453   -2.866568
 H    4.536106   -2.636765   -1.399139
 H    3.379174    3.005106    2.236475
 H    7.507282    1.916105    2.685824
 H    7.219797   -0.038703    1.174784
