40 
3qnd_ligand_dft.xyz
 C   -2.722481   -1.112550    1.056983
 C   -2.552334   -0.493648   -0.347641
 C   -2.635213    1.022282   -0.363915
 C   -1.422528    1.745647    0.227711
 C   -0.130405    1.151643   -0.352905
 C   -0.128587   -0.377045   -0.203753
 C    1.106271   -1.050588   -0.884379
 C    2.011864   -1.713251    0.153443
 C    3.236232   -2.352410   -0.480736
 C    1.623750    2.853176    0.012323
 C    2.993233    3.103973    0.606143
 N    1.074291    1.651125    0.296338
 O   -2.409442   -0.596322    2.099869
 O   -3.216559   -2.362624    0.977945
 O   -3.500750   -0.985901   -1.218200
 O   -1.587998    3.107844   -0.073020
 O   -1.276800   -0.938499   -0.817930
 O    0.744025   -2.040122   -1.813750
 O    2.433461   -0.730733    1.086997
 O    4.048227   -2.775484    0.607143
 O    1.055234    3.704034   -0.670834
 H   -3.544052    1.351658    0.146381
 H   -2.723701    1.311102   -1.415860
 H   -1.394052    1.593308    1.316010
 H   -0.086609    1.403406   -1.422240
 H   -0.130225   -0.620406    0.868861
 H    1.686031   -0.264850   -1.393346
 H    1.432426   -2.495507    0.667570
 H    2.932678   -3.188693   -1.119454
 H    3.759160   -1.604160   -1.094649
 H    2.906450    3.859528    1.392467
 H    3.638771    3.513946   -0.174081
 H    3.450936    2.202853    1.022241
 H    1.626825    0.981495    0.824757
 H   -3.254727   -2.712999    1.882406
 H   -3.562283   -1.942990   -1.088537
 H   -0.726668    3.478848   -0.344045
 H   -0.215362   -1.974311   -1.933325
 H    3.184162   -1.121914    1.558494
 H    4.906209   -3.049104    0.266568
