61 
3qpo_ligand_dft.xyz
 C    2.608252    2.804906    0.339260
 C    1.465476    2.017891   -0.031410
 C    1.608990    0.673866   -0.252056
 C    3.842921    2.214240    0.435840
 C    4.002331    0.823323    0.204383
 C    2.868629    0.038516   -0.085717
 C    3.107480   -1.366292   -0.249130
 N    4.341458   -1.844698   -0.290569
 C    5.346622   -0.972819   -0.067095
 N    5.263094    0.300529    0.228654
 O    2.347767    4.111523    0.543155
 O    0.307498    2.705729   -0.141915
 C    3.431585    4.945121    0.892316
 N    2.061494   -2.248335   -0.424648
 C    2.319589   -3.574007   -0.971364
 C    1.095538   -4.029950   -1.770091
 C   -0.192008   -3.968610   -0.940570
 C   -0.364709   -2.577832   -0.310177
 C    0.911368   -2.237750    0.471638
 C   -1.591513   -2.426505    0.559414
 C   -1.817455   -3.253957    1.663168
 C   -2.925118   -3.059921    2.482751
 C   -3.825696   -2.032230    2.213611
 C   -3.612576   -1.202539    1.116898
 C   -2.505458   -1.403326    0.297600
 C   -0.874011    1.963483   -0.386750
 C   -2.029901    2.951104   -0.350250
 C   -3.368223    2.291460   -0.582051
 N   -3.427823    1.365916   -1.548582
 C   -4.605236    0.790036   -1.799227
 C   -5.777773    1.100499   -1.119047
 C   -5.713240    2.057066   -0.111731
 C   -4.490841    2.656212    0.164994
 H    0.764063    0.092829   -0.595392
 H    4.737531    2.776410    0.673139
 H    6.346287   -1.401050   -0.112642
 H    3.010423    5.942452    1.021705
 H    3.898914    4.619402    1.830003
 H    4.189636    4.966982    0.099709
 H    3.206859   -3.524110   -1.602704
 H    2.538048   -4.288985   -0.161112
 H    0.994081   -3.380011   -2.647968
 H    1.261672   -5.049219   -2.136595
 H   -1.062173   -4.213386   -1.559447
 H   -0.147358   -4.723399   -0.143245
 H   -0.438739   -1.847802   -1.128157
 H    1.062925   -2.992342    1.262938
 H    0.821880   -1.274741    0.972060
 H   -1.119998   -4.056255    1.890954
 H   -3.084014   -3.712808    3.336279
 H   -4.687975   -1.880208    2.856223
 H   -4.306742   -0.397245    0.893186
 H   -2.352246   -0.750718   -0.558938
 H   -0.828969    1.470223   -1.364731
 H   -1.000359    1.188399    0.383166
 H   -1.861403    3.710020   -1.124318
 H   -2.026071    3.471701    0.612432
 H   -4.606583    0.036836   -2.583777
 H   -6.707524    0.600628   -1.368355
 H   -6.600161    2.329485    0.452756
 H   -4.401829    3.403094    0.947673
