61 
3qpo_ligand_xtb.xyz
 C    2.660535    2.728042    0.360940
 C    1.480941    1.967340    0.092478
 C    1.574670    0.619114   -0.138210
 C    3.885351    2.117149    0.300605
 C    3.994975    0.739894    0.025989
 C    2.820054   -0.039706   -0.113789
 C    3.039444   -1.444076   -0.291896
 N    4.258402   -1.893589   -0.576506
 C    5.271856   -1.037962   -0.505707
 N    5.229634    0.212773   -0.142579
 O    2.447102    4.042517    0.621638
 O    0.323669    2.682213    0.082735
 C    3.567019    4.858903    0.861153
 N    2.058588   -2.375956   -0.207902
 C    2.263580   -3.711818   -0.721097
 C    1.063644   -4.091129   -1.591816
 C   -0.238811   -3.977308   -0.800879
 C   -0.370399   -2.568811   -0.207708
 C    0.889654   -2.288364    0.628921
 C   -1.618032   -2.389851    0.615771
 C   -1.867411   -3.182066    1.731038
 C   -3.007096   -2.993672    2.491377
 C   -3.916598   -2.006541    2.151616
 C   -3.678423   -1.211999    1.044418
 C   -2.538982   -1.404020    0.282833
 C   -0.878017    2.000396   -0.203585
 C   -2.013425    3.017947   -0.156087
 C   -3.329115    2.408418   -0.546974
 N   -3.306652    1.441169   -1.455852
 C   -4.448909    0.898950   -1.840530
 C   -5.684123    1.284057   -1.346143
 C   -5.714747    2.292326   -0.394668
 C   -4.521478    2.862369    0.012691
 H    0.691592    0.065358   -0.403509
 H    4.806886    2.659327    0.429381
 H    6.246492   -1.450866   -0.737187
 H    3.169662    5.853517    1.057281
 H    4.135136    4.515098    1.731483
 H    4.229277    4.896892   -0.009624
 H    3.189061   -3.717912   -1.295490
 H    2.362402   -4.422828    0.109696
 H    1.026288   -3.420120   -2.452341
 H    1.190501   -5.109752   -1.960795
 H   -1.092737   -4.185882   -1.448453
 H   -0.241606   -4.715807    0.003145
 H   -0.395706   -1.854604   -1.038427
 H    0.969682   -3.055493    1.412875
 H    0.838308   -1.319847    1.123485
 H   -1.168238   -3.955303    2.013444
 H   -3.185695   -3.618917    3.354078
 H   -4.805444   -1.858621    2.746923
 H   -4.379904   -0.437731    0.768943
 H   -2.369865   -0.774605   -0.579396
 H   -0.841997    1.549362   -1.202867
 H   -1.059007    1.208246    0.537304
 H   -1.773440    3.827081   -0.851591
 H   -2.077749    3.449814    0.843287
 H   -4.362772    0.113391   -2.580589
 H   -6.589616    0.809702   -1.690339
 H   -6.653238    2.625679    0.024751
 H   -4.508227    3.648027    0.752695
