30 
3qqs_ligand_ani-2x.xyz
 O   30.725699   -4.654506   26.873015
 O   26.799625   -7.670445   29.103857
 O   31.932906   -4.888340   25.049517
 O   28.080461   -6.189457   28.086447
 C   33.801800   -8.575109   27.921923
 C   30.689555   -7.218900   32.292442
 C   34.351698   -7.817778   26.891967
 C   29.325918   -7.371992   32.525972
 C   32.584486   -8.213722   28.483602
 C   31.163135   -7.002575   31.003748
 C   33.640841   -6.736087   26.394212
 C   28.442893   -7.304611   31.456777
 N   30.708254   -6.683390   28.625355
 C   31.610577   -5.254565   26.307265
 C   27.926422   -6.931440   29.026259
 C   31.892051   -7.084027   28.030092
 C   30.277171   -6.938316   29.922896
 C   32.388058   -6.381897   26.909616
 C   28.897832   -7.081358   30.155319
 H   26.877265   -8.322939   29.814395
 H   32.508080   -5.546270   24.636944
 H   34.328456   -9.443413   28.307350
 H   31.396100   -7.269865   33.116026
 H   35.313995   -8.083640   26.463240
 H   28.955429   -7.546330   33.532361
 H   32.165257   -8.812497   29.287302
 H   32.227663   -6.868601   30.831548
 H   34.093133   -6.134257   25.606304
 H   27.372116   -7.383089   31.642913
 H   30.122724   -6.048882   28.082334
