30 
3qqs_ligand_aiqm1.xyz
 O   31.009920   -4.424123   27.002523
 O   26.807996   -7.688619   29.082806
 O   31.787378   -5.023324   25.023392
 O   28.066109   -6.187110   28.062639
 C   33.859472   -8.524624   27.946275
 C   30.654568   -7.280347   32.283675
 C   34.359289   -7.822073   26.851540
 C   29.284826   -7.399134   32.506405
 C   32.663670   -8.153946   28.542602
 C   31.148216   -7.047217   31.006774
 C   33.626549   -6.757811   26.347369
 C   28.413834   -7.290603   31.430682
 N   30.722174   -6.681370   28.618249
 C   31.673540   -5.195950   26.361741
 C   27.921412   -6.921135   29.003437
 C   31.935420   -7.046235   28.066770
 C   30.275324   -6.940582   29.911655
 C   32.418320   -6.359196   26.931242
 C   28.888604   -7.070699   30.133515
 H   26.884642   -8.286483   29.832362
 H   32.236331   -5.782609   24.639575
 H   34.403863   -9.374427   28.338566
 H   31.345302   -7.346020   33.114329
 H   35.298321   -8.099868   26.395742
 H   28.898087   -7.557346   33.502843
 H   32.282149   -8.722839   29.378377
 H   32.211069   -6.918701   30.853822
 H   34.020735   -6.197939   25.505109
 H   27.344147   -7.338203   31.608197
 H   30.158334   -6.019769   28.098788
