56 
3qqu_ligand_xtb.xyz
 C  -10.910029    0.226472   -0.103685
 N  -11.911930   -6.883451   -5.042435
 O  -12.398237   -9.060753   -3.591878
 C  -11.023454   -8.816444   -3.841400
 N  -10.673332   -1.984161    0.808018
 O   -9.941669   -5.915778   -3.247519
 C  -10.831523   -7.831284   -5.006348
 N  -10.172308   -5.306737    2.167676
 C  -11.509346   -0.913408   -2.443693
 N  -11.551191    0.421974   -2.387764
 C  -13.204874   -7.495165   -5.265233
 N  -11.221335   -1.724231   -1.427298
 C  -13.182474   -8.948410   -4.751818
 N  -11.817013   -1.462691   -3.641926
 C  -12.120705   -6.411500   -0.761206
 C  -12.093679   -7.763178   -0.559881
 C  -11.421804   -8.303420    0.550123
 C  -10.789305   -7.490146    1.449554
 C  -12.757804   -3.313926   -4.868172
 C  -11.817198   -2.820876   -3.976965
 C  -10.860813   -3.691283   -3.458975
 C  -10.857829   -5.038230   -3.774918
 C  -11.827052   -5.556361   -4.667556
 C  -12.750851   -4.654489   -5.201320
 C   -8.942957   -5.421358   -2.391483
 C  -10.774908   -3.366416    0.881913
 C  -11.449330   -4.146848   -0.031272
 C  -11.472803   -5.543587    0.141735
 C  -10.800159   -6.093235    1.267242
 C  -10.166161   -4.021644    1.982788
 C  -11.238538    0.965351   -1.221511
 C  -10.942482   -1.170412   -0.255864
 H  -10.661614    0.688796    0.837257
 H  -10.511454   -9.765913   -4.061455
 H  -10.623272   -8.394632   -2.917289
 H  -10.333050   -1.523631    1.640502
 H   -9.880178   -7.317929   -4.908773
 H  -10.831102   -8.377036   -5.960648
 H  -13.472042   -7.494992   -6.334045
 H  -13.961626   -6.928608   -4.716585
 H  -14.188950   -9.263250   -4.469436
 H  -12.812158   -9.630104   -5.531671
 H  -12.204226   -0.814969   -4.312591
 H  -12.627085   -5.986303   -1.615952
 H  -12.579844   -8.424986   -1.260693
 H  -11.410895   -9.375041    0.686682
 H  -10.270850   -7.885778    2.309142
 H  -13.492560   -2.653617   -5.304324
 H  -10.133336   -3.290356   -2.776448
 H  -13.479412   -5.016095   -5.909360
 H   -8.297592   -4.698516   -2.902000
 H   -9.366685   -4.962565   -1.493648
 H   -8.352911   -6.290592   -2.102460
 H  -11.942456   -3.703374   -0.880313
 H   -9.650705   -3.436298    2.737370
 H  -11.262205    2.047412   -1.192493
