28 
3qs8_ligand_ani-2x.xyz
 O    8.442396  -14.568267   32.045373
 O    7.500278  -12.968014   33.241979
 C    5.961106   -8.557441   34.651960
 C    4.907663   -9.466389   34.687401
 C    6.886076   -8.621529   33.614758
 C    7.624453  -11.209906   28.436634
 C    8.654301  -12.120174   28.648749
 C    4.785542  -10.428904   33.690425
 C    6.763652   -9.588647   32.618811
 C    6.633829  -11.051916   29.400433
 C    8.687347  -12.845803   29.831402
 C    5.496600  -11.566154   31.561806
 C    7.912154  -13.487666   32.069987
 C    5.708942  -10.506882   32.641592
 C    6.646557  -11.774681   30.596492
 C    7.720649  -12.657575   30.820892
 H    7.184671  -12.053513   33.131320
 H    6.061289   -7.803971   35.428724
 H    4.179870   -9.428427   35.494931
 H    7.717587   -7.922478   33.584841
 H    7.583272  -10.631728   27.516943
 H    9.425052  -12.265465   27.897110
 H    3.963951  -11.143081   33.726477
 H    7.506399   -9.635730   31.823804
 H    5.821971  -10.348657   29.223708
 H    9.468579  -13.575518   30.024426
 H    4.621558  -11.266497   30.973039
 H    5.210354  -12.511488   32.039684
