58 
3qsd_ligand_xtb.xyz
 C    1.188918   -2.547509   -0.375847
 C    1.933929   -3.011845    0.869541
 C    3.436010   -2.738880    0.778022
 N    3.713783   -1.322804    0.714166
 C    4.329897   -0.742729   -0.318895
 O    4.844008   -1.331891   -1.255410
 C    4.386956    0.792565   -0.279753
 O    5.413340    1.216355   -1.130578
 C    3.033851    1.370528   -0.747404
 C    1.913237    1.167152    0.250981
 O    2.088223    0.815896    1.408157
 N    0.689410    1.430883   -0.240498
 C   -0.518898    1.097780    0.478654
 C   -1.329433    0.152989   -0.406088
 O   -1.255939    0.213785   -1.622214
 C   -1.359069    2.352184    0.817575
 C   -1.620919    3.195065   -0.436432
 C   -0.651068    3.155759    1.904921
 C   -2.784115    4.163360   -0.255124
 N   -2.127490   -0.728865    0.217099
 C   -2.975058   -1.611874   -0.558477
 C   -4.246869   -0.911834   -1.031602
 O   -4.302236    0.367943   -0.664654
 C   -3.307631   -2.750006    0.407316
 C   -3.358612   -2.022193    1.749590
 C   -2.228478   -0.995655    1.640193
 O   -5.115841   -1.457811   -1.652735
 H    1.597638   -3.024827   -1.263017
 H    0.132041   -2.795255   -0.307452
 H    1.278408   -1.470712   -0.498111
 H    1.786555   -4.084379    1.008666
 H    1.536853   -2.498445    1.749164
 H    3.941170   -3.164714    1.652486
 H    3.855946   -3.188094   -0.125102
 H    3.257251   -0.721488    1.392106
 H    4.599562    1.145105    0.736335
 H    5.608005    0.453365   -1.706999
 H    3.172110    2.443192   -0.906913
 H    2.762780    0.923199   -1.706929
 H    0.556722    1.586090   -1.230624
 H   -0.206578    0.606081    1.404523
 H   -2.324951    2.003467    1.199516
 H   -0.719316    3.756504   -0.688405
 H   -1.850410    2.530468   -1.270986
 H   -1.224125    4.041812    2.162879
 H    0.332946    3.466087    1.562181
 H   -0.522352    2.557207    2.803793
 H   -3.692449    3.622354    0.001921
 H   -2.578973    4.884573    0.531963
 H   -2.961423    4.711471   -1.177195
 H   -2.448912   -1.945823   -1.459775
 H   -5.099016    0.788275   -1.026092
 H   -4.244241   -3.236735    0.145498
 H   -2.507892   -3.490636    0.401956
 H   -4.316800   -1.513440    1.858662
 H   -3.222082   -2.691280    2.595979
 H   -2.448707   -0.086625    2.202891
 H   -1.284136   -1.415629    2.006112
