58 
3qsd_ligand_ani-2x.xyz
 C    1.251578   -2.376159   -1.046646
 C    1.556089   -2.847545    0.374147
 C    3.016926   -2.642450    0.782223
 N    3.427435   -1.251277    0.750304
 C    4.139473   -0.737769   -0.273478
 O    4.556591   -1.408585   -1.217536
 C    4.418793    0.772624   -0.246711
 O    5.470015    1.047035   -1.128642
 C    3.174114    1.579730   -0.663797
 C    2.015857    1.420038    0.305922
 O    2.197672    1.311704    1.517999
 N    0.773961    1.389004   -0.242193
 C   -0.394833    1.042697    0.541287
 C   -1.202295    0.018175   -0.261940
 O   -1.145241   -0.011698   -1.489381
 C   -1.256110    2.285851    0.900179
 C   -1.744920    3.040458   -0.345180
 C   -0.467319    3.191483    1.849674
 C   -2.798388    4.100272   -0.029664
 N   -1.992181   -0.859210    0.410998
 C   -2.757704   -1.836688   -0.349767
 C   -3.808580   -1.208257   -1.251023
 O   -4.330793   -0.072059   -0.748523
 C   -3.407586   -2.715188    0.736254
 C   -3.500900   -1.784147    1.949376
 C   -2.228411   -0.942190    1.853096
 O   -4.199126   -1.710379   -2.274946
 H    1.907388   -2.861559   -1.778303
 H    0.213252   -2.597314   -1.320095
 H    1.389484   -1.294209   -1.144919
 H    1.325159   -3.917089    0.468057
 H    0.898878   -2.336491    1.093928
 H    3.181631   -3.032312    1.792540
 H    3.677271   -3.183276    0.098483
 H    3.056657   -0.615365    1.446929
 H    4.701617    1.068828    0.772684
 H    5.561530    0.245271   -1.673321
 H    3.472590    2.634822   -0.700666
 H    2.879008    1.301054   -1.683666
 H    0.661270    1.272627   -1.242686
 H   -0.038911    0.602925    1.478794
 H   -2.146038    1.913395    1.431179
 H   -0.882036    3.511772   -0.833544
 H   -2.146886    2.323297   -1.072909
 H   -1.103072    3.970161    2.282253
 H    0.357766    3.681270    1.320926
 H   -0.027811    2.616282    2.671150
 H   -3.666596    3.655712    0.470234
 H   -2.402950    4.888214    0.620673
 H   -3.153872    4.580385   -0.947157
 H   -2.113736   -2.419122   -1.013095
 H   -5.001171    0.211857   -1.392064
 H   -4.375033   -3.112576    0.415544
 H   -2.751234   -3.564479    0.951459
 H   -4.375270   -1.134960    1.855052
 H   -3.573106   -2.326418    2.895207
 H   -2.355959    0.054548    2.285665
 H   -1.378410   -1.423207    2.359172
