15 
3qvu_ligand_xtb.xyz
 C  -26.250991   -0.029483   -5.026327
 C  -25.877660    1.238712   -4.587551
 C  -24.543793    1.554561   -4.477554
 C  -23.570407    0.606000   -4.805027
 C  -23.954907   -0.662063   -5.243766
 C  -25.290832   -0.980271   -5.354564
 O  -22.277558    0.960603   -4.681661
 N  -27.642015   -0.360183   -5.141480
 O  -28.452794    0.493922   -4.846853
 O  -27.927580   -1.475810   -5.527074
 H  -26.645041    1.955642   -4.340071
 H  -24.222914    2.526759   -4.141152
 H  -23.200620   -1.394266   -5.496549
 H  -25.607911   -1.955001   -5.691822
 H  -21.695278    0.232077   -4.933249
