19 
3qvv_ligand_xtb.xyz
 C    2.102081   12.116446   12.755011
 N    4.512393    5.077437   11.643170
 O    1.513370   13.292603   13.034686
 C    3.355153   12.148241   12.121122
 O    1.481023    6.352374   13.155315
 C    4.000333   10.980762   11.812714
 O    1.558757    8.558657   13.083637
 C    3.425117    9.738494   12.122330
 C    4.036908    8.488968   11.832060
 C    3.412744    7.326702   12.165040
 C    4.003565    6.074849   11.885434
 C    2.102026    7.325555   12.827319
 C    2.169401    9.716095   12.757439
 C    1.513942   10.900526   13.070790
 H    0.660570   13.156673   13.467838
 H    3.784689   13.108986   11.889406
 H    4.963089   11.000566   11.325697
 H    5.002029    8.472847   11.344556
 H    0.551511   10.850319   13.558037
