78 
3qw5_ligand_aiqm1.xyz
 N    0.721477   -0.053586    1.652233
 C   -0.181765    1.022340    2.128509
 C   -0.104281    2.255645    1.223572
 O   -0.442172    3.349384    1.643487
 C    0.049575    1.348884    3.608046
 C    1.322424    2.106899    4.004468
 C    2.633257    1.311251    4.054579
 N    2.544616    0.087856    4.841546
 C    2.413831   -1.157383    4.288302
 N    2.718744   -1.493254    3.078018
 N    1.812487   -2.094161    5.103047
 N    0.322800    2.033223   -0.041393
 C    0.265007    3.101036   -1.061439
 C   -1.090063    2.925910   -1.760663
 O   -1.195123    2.447612   -2.880589
 C    1.445465    2.966871   -2.012175
 C    2.782658    3.205268   -1.293559
 C    3.903016    2.222048   -1.647819
 N    3.543517    0.807334   -1.518290
 C    3.245244    0.200744   -0.342851
 N    3.146777    0.791241    0.813888
 N    2.890003   -1.121715   -0.405938
 N   -2.153580    3.236548   -0.985004
 C   -3.461572    2.675956   -1.291716
 C   -3.482807    1.178839   -0.937917
 O   -3.843319    0.756079    0.149381
 N   -3.022323    0.367092   -1.922793
 C   -2.944646   -1.062372   -1.751292
 C   -1.880003   -1.476926   -0.724909
 O   -0.926558   -0.755135   -0.416746
 C   -2.680099   -1.717628   -3.119568
 C   -2.762734   -3.221714   -3.105790
 C   -1.630391   -4.004320   -3.343353
 C   -3.974418   -3.861964   -2.827616
 C   -1.704087   -5.396912   -3.310807
 C   -4.050375   -5.254186   -2.792554
 C   -2.914295   -6.023256   -3.030354
 N   -2.068884   -2.679775   -0.167666
 H    0.309585   -0.572584    0.874443
 H    0.966211   -0.718882    2.380828
 H    1.652780    0.364896    1.355782
 H   -1.205891    0.657654    2.042527
 H   -0.797079    1.963327    3.902719
 H   -0.021298    0.414805    4.170883
 H    1.136510    2.513561    4.998474
 H    1.462453    2.964621    3.347235
 H    2.972466    1.054416    3.058094
 H    3.404732    1.946398    4.488479
 H    2.282736    0.190663    5.807559
 H    3.176280   -0.718774    2.608421
 H    1.925028   -1.957281    6.093496
 H    1.997234   -3.037375    4.800221
 H    0.310662    1.079685   -0.383816
 H    0.285930    4.050709   -0.525521
 H    1.407404    1.972653   -2.459049
 H    1.309314    3.669197   -2.832694
 H    2.616619    3.191657   -0.214570
 H    3.156968    4.203532   -1.519675
 H    4.784238    2.442365   -1.039889
 H    4.187062    2.360010   -2.686987
 H    3.719207    0.226634   -2.319860
 H    3.484868    1.744988    0.785808
 H    3.013825   -1.638543    0.451602
 H    3.116616   -1.625369   -1.245589
 H   -1.973203    3.539350   -0.037536
 H   -3.666407    2.821751   -2.349357
 H   -4.215223    3.177445   -0.694759
 H   -2.521315    0.793047   -2.689795
 H   -3.899889   -1.417391   -1.361979
 H   -1.698392   -1.397433   -3.475652
 H   -3.426661   -1.315943   -3.805025
 H   -0.688746   -3.515185   -3.569235
 H   -4.868551   -3.271797   -2.658502
 H   -0.819237   -5.985446   -3.509264
 H   -4.997700   -5.732036   -2.586584
 H   -2.976310   -7.101026   -3.008760
 H   -2.786303   -3.290838   -0.520911
 H   -1.364328   -3.071531    0.432964
