78 
3qw5_ligand_xtb.xyz
 N    0.552970   -0.182308    1.632512
 C   -0.087681    1.018938    2.191751
 C   -0.059641    2.215585    1.230155
 O   -0.294710    3.340044    1.626627
 C    0.463761    1.427295    3.562302
 C    1.942395    1.830698    3.622827
 C    2.960320    0.680450    3.753682
 N    2.597415   -0.280789    4.774539
 C    1.759394   -1.327225    4.492380
 N    1.681658   -1.930656    3.355211
 N    0.890521   -1.690654    5.480304
 N    0.228359    1.938723   -0.056893
 C    0.155841    2.971459   -1.086483
 C   -1.258898    2.850931   -1.663440
 O   -1.500170    2.351857   -2.744972
 C    1.248765    2.733975   -2.124599
 C    2.635376    2.920439   -1.496036
 C    3.684371    1.905865   -1.978774
 N    3.231473    0.526828   -1.962716
 C    2.743130   -0.129781   -0.885573
 N    2.783140    0.267670    0.342959
 N    2.094421   -1.305484   -1.154583
 N   -2.203410    3.246984   -0.785749
 C   -3.569070    2.765183   -0.895354
 C   -3.500294    1.250048   -0.683139
 O   -3.478344    0.729618    0.419191
 N   -3.365905    0.543309   -1.816194
 C   -3.106694   -0.882474   -1.754862
 C   -2.230838   -1.189191   -0.540458
 O   -1.119467   -0.682066   -0.412661
 C   -2.369717   -1.339908   -3.022459
 C   -2.084396   -2.815994   -2.956262
 C   -0.880886   -3.279335   -2.440719
 C   -3.038442   -3.735977   -3.371201
 C   -0.633914   -4.637561   -2.344494
 C   -2.791728   -5.094501   -3.278022
 C   -1.589160   -5.548016   -2.763239
 N   -2.684776   -2.132012    0.286644
 H   -0.072329   -0.582260    0.900090
 H    0.751908   -0.916870    2.372214
 H    1.524100    0.032421    1.145105
 H   -1.157721    0.805343    2.329829
 H   -0.122577    2.296039    3.865480
 H    0.259236    0.629231    4.276684
 H    2.061527    2.477808    4.493830
 H    2.197173    2.425378    2.745852
 H    3.080009    0.157476    2.804401
 H    3.931290    1.105673    4.019923
 H    2.526368    0.111007    5.702926
 H    2.470646   -1.721291    2.751377
 H    1.086970   -1.401289    6.424019
 H    0.486860   -2.608133    5.383949
 H    0.129831    0.993947   -0.405184
 H    0.283864    3.940567   -0.594285
 H    1.128650    1.719558   -2.508848
 H    1.097759    3.417631   -2.958597
 H    2.533246    2.844821   -0.412826
 H    3.017901    3.917622   -1.711825
 H    4.583182    2.002099   -1.358602
 H    3.965589    2.129832   -3.007554
 H    3.089000    0.095394   -2.861198
 H    3.275199    1.138743    0.480825
 H    1.985274   -1.935693   -0.376621
 H    2.287820   -1.756244   -2.033993
 H   -1.906234    3.592688    0.117223
 H   -3.967171    3.004135   -1.883482
 H   -4.174504    3.230128   -0.119767
 H   -3.139895    1.031079   -2.674913
 H   -4.059282   -1.419670   -1.658508
 H   -1.439968   -0.772970   -3.099114
 H   -2.993798   -1.112892   -3.887920
 H   -0.136842   -2.567375   -2.113082
 H   -3.975633   -3.386639   -3.779757
 H    0.306549   -4.988593   -1.945791
 H   -3.537555   -5.799882   -3.610954
 H   -1.395230   -6.607143   -2.692988
 H   -3.625784   -2.477867    0.218072
 H   -2.160995   -2.376076    1.112607
