78 
3qw5_ligand_dft.xyz
 N    1.447384    1.135708   -0.130323
 C    1.685032    0.423999   -1.415190
 C    1.868068   -1.081391   -1.179008
 O    2.482383   -1.762038   -1.989179
 C    2.834228    1.020140   -2.234523
 C    4.266947    0.888868   -1.691657
 C    4.703392    1.858022   -0.579955
 N    4.479525    3.260816   -0.908231
 C    3.302213    3.898904   -0.603872
 N    2.538295    3.637740    0.416656
 N    2.883059    4.841175   -1.508361
 N    1.308304   -1.589337   -0.049516
 C    1.305709   -3.029756    0.216864
 C    0.008984   -3.540563   -0.418638
 O   -0.997793   -3.770733    0.238022
 C    1.393596   -3.271287    1.719113
 C    2.734606   -2.771531    2.279086
 C    2.629026   -2.051592    3.628076
 N    1.720092   -0.910736    3.622050
 C    1.921015    0.234470    2.916646
 N    2.948459    0.529033    2.176112
 N    0.867581    1.127887    2.907331
 N    0.040793   -3.545797   -1.778964
 C   -1.197104   -3.363968   -2.518123
 C   -1.716691   -1.942097   -2.276656
 O   -1.344805   -0.978333   -2.932739
 N   -2.593472   -1.825167   -1.243558
 C   -3.142834   -0.541246   -0.897406
 C   -2.072162    0.449993   -0.430106
 O   -1.091967    0.094538    0.234516
 C   -4.209685   -0.714470    0.204470
 C   -4.920861    0.578517    0.523281
 C   -4.652055    1.277452    1.700344
 C   -5.820259    1.127401   -0.395998
 C   -5.265837    2.501003    1.955895
 C   -6.430770    2.352841   -0.146732
 C   -6.152822    3.043527    1.030910
 N   -2.292578    1.736306   -0.745337
 H    0.480607    0.964116    0.203175
 H    1.605540    2.170650   -0.182730
 H    2.105673    0.826219    0.634421
 H    0.761950    0.520093   -2.000232
 H    2.796262    0.500530   -3.194879
 H    2.598499    2.071043   -2.442737
 H    4.940280    1.037299   -2.544684
 H    4.446154   -0.138492   -1.355525
 H    4.204332    1.637723    0.365998
 H    5.772325    1.717911   -0.393007
 H    4.967334    3.582636   -1.732928
 H    3.039063    3.046326    1.079973
 H    3.521143    5.176432   -2.213461
 H    2.259877    5.539102   -1.130034
 H    0.523269   -1.087925    0.359958
 H    2.174175   -3.449734   -0.298384
 H    0.551515   -2.757003    2.196026
 H    1.250325   -4.337423    1.916539
 H    3.193060   -2.092922    1.552709
 H    3.434766   -3.604428    2.402483
 H    3.625909   -1.735593    3.962294
 H    2.249875   -2.739640    4.388050
 H    0.966217   -0.924782    4.290209
 H    3.695489   -0.150555    2.270239
 H    1.146195    2.093956    2.801604
 H    0.104204    0.987542    3.551780
 H    0.889360   -3.202333   -2.218158
 H   -1.921123   -4.118273   -2.203500
 H   -0.994854   -3.482987   -3.582520
 H   -2.627655   -2.582191   -0.569578
 H   -3.614583   -0.123288   -1.793708
 H   -3.725848   -1.120108    1.100542
 H   -4.922660   -1.465935   -0.152010
 H   -3.956713    0.858771    2.424141
 H   -6.053984    0.585664   -1.310321
 H   -5.055576    3.028242    2.881527
 H   -7.133496    2.762101   -0.865979
 H   -6.634029    3.995896    1.229529
 H   -3.169457    2.023167   -1.156955
 H   -1.738459    2.453922   -0.300778
