55 
3qxv_ligand_dft.xyz
 N   -2.830343   -2.609473    0.165087
 C   -4.059694   -2.941296    0.545416
 N   -4.235083   -4.189006    1.033483
 N   -5.188350   -2.176988    0.521019
 C   -5.053586   -0.945777    0.075412
 N   -6.116217   -0.127692    0.022124
 C   -3.771288   -0.443571   -0.361384
 N   -3.647904    0.823672   -0.787450
 C   -2.444010    1.213701   -1.169714
 C   -1.353876    0.302431   -1.126638
 N   -1.467647   -0.935669   -0.696980
 C   -2.695670   -1.351798   -0.288677
 C   -2.232968    2.670470   -1.523441
 N   -1.812969    3.475154   -0.362366
 C   -2.892624    3.721945    0.577898
 C    1.789375    1.767981    1.003027
 C    1.727782    2.444530   -0.219626
 C    0.560383    3.074342   -0.611982
 C   -0.590317    3.013963    0.187591
 C   -0.495149    2.424561    1.452015
 C    0.688048    1.814366    1.852208
 C    2.940344    0.903182    1.406925
 O    3.158473    0.597330    2.572264
 N    3.692344    0.431089    0.367804
 C    4.616341   -0.652266    0.590078
 C    5.715274   -0.585418   -0.452162
 O    6.773560   -1.338710   -0.101069
 O    5.656938    0.016084   -1.496924
 C    3.928415   -2.037309    0.553355
 C    3.220047   -2.366932   -0.777520
 C    1.869406   -1.692416   -0.940099
 O    1.706507   -0.635355   -1.528834
 O    0.896683   -2.376267   -0.366224
 H   -5.166005   -4.513357    1.231937
 H   -3.466147   -4.836920    0.993870
 H   -7.015059   -0.457891    0.332333
 H   -5.995067    0.813345   -0.317763
 H   -0.356468    0.599358   -1.444032
 H   -1.477951    2.761160   -2.308387
 H   -3.167858    3.088041   -1.907156
 H   -3.312192    2.811085    1.034375
 H   -3.702901    4.235268    0.051379
 H   -2.531400    4.379443    1.372993
 H    2.594719    2.483839   -0.872450
 H    0.517340    3.595314   -1.563536
 H   -1.358048    2.383984    2.107638
 H    0.754268    1.313538    2.812606
 H    3.301897    0.483050   -0.566123
 H    5.057571   -0.519682    1.580801
 H    7.408474   -1.277571   -0.832815
 H    4.686649   -2.801904    0.749422
 H    3.211901   -2.070806    1.379816
 H    3.840801   -2.074324   -1.630126
 H    3.058146   -3.447030   -0.824859
 H    0.025809   -1.898336   -0.488763
