34 
3r1v_ligand_xtb.xyz
 C    1.234040   -5.610991   13.886253
 N    6.732216   -4.873757   17.014081
 O   11.403917   -4.988045   21.147322
 N    7.022075   -4.042943   17.933091
 C    2.200391   -3.623353   12.677545
 C    8.811574   -5.555442   18.685311
 C    9.891959   -5.761686   19.507704
 C   10.332217   -4.742075   20.354185
 C    9.667733   -3.517514   20.367302
 C    8.577603   -3.312915   19.550464
 C    8.136517   -4.324801   18.691954
 C    3.352699   -3.740528   16.053927
 C    4.512124   -3.854475   16.788657
 C    5.565521   -4.648118   16.317961
 C    5.414376   -5.321172   15.100812
 C    4.254463   -5.184280   14.370978
 C    3.203475   -4.395826   14.834394
 C    1.927085   -4.255511   14.044346
 H    1.851342   -6.296594   13.311277
 H    1.044507   -6.055410   14.860947
 H    0.284211   -5.489091   13.370151
 H   11.605253   -4.211206   21.683778
 H    2.696286   -2.662511   12.797093
 H    2.837411   -4.265117   12.074232
 H    1.265991   -3.467123   12.142853
 H    8.455438   -6.332669   18.026704
 H   10.418796   -6.703023   19.519647
 H   10.011440   -2.729896   21.025688
 H    8.055029   -2.368994   19.551312
 H    2.541947   -3.131077   16.429675
 H    4.627918   -3.353817   17.738255
 H    6.229626   -5.930823   14.741895
 H    4.160994   -5.703427   13.428522
 H    1.253829   -3.591389   14.598084
