34 
3r1v_ligand_aiqm1.xyz
 C    1.087541   -5.452178   14.002285
 N    6.737249   -4.901692   17.077017
 O   11.552740   -4.893218   21.015122
 N    6.900353   -4.149522   18.057888
 C    2.284416   -3.796618   12.535425
 C    9.047540   -5.370008   18.435193
 C   10.193935   -5.522226   19.198904
 C   10.407259   -4.696355   20.302389
 C    9.474662   -3.718587   20.642178
 C    8.327798   -3.571690   19.872141
 C    8.106750   -4.390467   18.770317
 C    3.445914   -3.550690   15.916160
 C    4.589136   -3.686590   16.695428
 C    5.529942   -4.662566   16.361867
 C    5.314735   -5.483741   15.260030
 C    4.168408   -5.338697   14.488579
 C    3.211914   -4.366138   14.805395
 C    1.955656   -4.191351   13.977675
 H    1.614137   -6.294979   13.547905
 H    0.822671   -5.733354   15.022425
 H    0.166234   -5.292118   13.437904
 H   11.581316   -4.267897   21.742164
 H    2.882516   -2.885126   12.498570
 H    2.847778   -4.588108   12.035170
 H    1.366825   -3.630831   11.966658
 H    8.873365   -6.005244   17.578165
 H   10.934509   -6.272962   18.958014
 H    9.641835   -3.077546   21.499962
 H    7.588046   -2.820383   20.114332
 H    2.714958   -2.792667   16.175006
 H    4.755022   -3.047342   17.551866
 H    6.061188   -6.232429   15.024306
 H    4.015042   -5.985877   13.633338
 H    1.378609   -3.376406   14.426621
