51 
3r2b_ligand_aiqm1.xyz
 C   -8.938475  -52.612297   10.807293
 C   -9.603674  -51.531967   11.677527
 N   -8.664706  -50.464920   11.957250
 C   -7.415697  -50.753367   12.567405
 N  -10.451304  -53.350621    8.363673
 C   -9.818198  -53.876078   10.699723
 C   -8.591477  -52.073587    9.388482
 C   -9.778683  -51.982026    8.449365
 C  -10.980947  -53.751341    9.733748
 O   -6.860695  -49.888089   13.223675
 C   -7.648179  -52.966325   11.444882
 C   -6.921490  -52.078257   12.255986
 C   -5.725371  -52.750623   12.562286
 C   -5.814260  -53.976728   11.899513
 N   -6.995020  -54.102614   11.203673
 C   -4.834625  -55.049193   11.864806
 C   -3.709985  -55.058118   12.714463
 C   -2.836740  -56.119154   12.601809
 N   -3.017450  -57.124897   11.729963
 C   -4.113182  -57.030298   10.965154
 N   -5.020258  -56.053261   10.987359
 C   -4.347398  -58.121755    9.985516
 C   -3.467891  -59.202770    9.901848
 C   -3.666117  -60.242222    8.986573
 C   -5.473340  -58.049384    9.138803
 C   -5.644799  -59.069816    8.239075
 C   -4.766204  -60.139703    8.163370
 O   -5.207200  -61.026730    7.209871
 C   -6.170987  -60.283417    6.474367
 O   -6.667098  -59.260337    7.329258
 H   -9.954138  -52.016035   12.600690
 H  -10.489494  -51.100659   11.188377
 H   -9.070998  -49.642242   12.374899
 H   -9.744771  -54.042128    8.072814
 H  -11.197184  -53.351581    7.666564
 H  -10.205118  -54.124640   11.684033
 H   -9.168502  -54.699899   10.405247
 H   -7.830234  -52.730818    8.960751
 H   -8.142698  -51.090222    9.497976
 H  -10.525022  -51.282668    8.826894
 H   -9.492021  -51.680450    7.444408
 H  -11.530260  -54.683628    9.631736
 H  -11.671484  -52.967826   10.050475
 H   -4.908131  -52.380547   13.160668
 H   -3.545842  -54.266243   13.429273
 H   -1.953278  -56.184620   13.228717
 H   -2.616693  -59.228944   10.564462
 H   -2.995977  -61.087176    8.926450
 H   -6.153213  -57.216963    9.224804
 H   -6.986191  -60.938458    6.177479
 H   -5.681299  -59.821055    5.608267
