42 
3r2y_ligand_aiqm1.xyz
 C  238.733297   82.677900  184.483979
 C  240.136452   82.609225  184.653262
 C  240.747559   81.997496  185.778784
 C  242.113551   81.959210  185.889895
 C  242.926479   82.531899  184.879624
 C  242.358451   83.131504  183.784850
 C  240.949554   83.186369  183.646713
 N  240.425868   83.804671  182.545418
 C  239.120853   83.851421  182.433374
 C  238.205920   83.293819  183.374612
 C  236.746711   83.410784  183.144571
 C  235.861368   82.448879  183.635456
 N  236.332679   84.474843  182.439884
 C  235.015465   84.611104  182.249217
 C  234.063050   83.713479  182.712822
 C  234.487665   82.583724  183.420179
 C  233.534939   81.592348  183.908349
 C  232.194154   81.694763  184.208566
 C  231.763795   80.411898  184.644585
 C  230.456838   79.943679  185.128936
 O  229.485722   80.653844  185.313998
 N  230.442067   78.588729  185.427344
 C  231.361091   77.658217  184.787799
 C  232.803086   78.125924  184.977059
 C  232.850122   79.563409  184.590191
 N  233.924779   80.285984  184.163165
 H  238.091747   82.262806  185.254314
 H  240.118624   81.565579  186.549383
 H  242.575567   81.493583  186.750743
 H  244.003301   82.495685  184.979494
 H  242.958520   83.578917  183.003691
 H  238.719256   84.356581  181.563326
 H  236.247640   81.606953  184.195154
 H  234.705105   85.485184  181.689081
 H  233.013266   83.879203  182.518163
 H  231.588820   82.582170  184.149305
 H  234.838173   79.918073  183.966023
 H  229.510211   78.251678  185.609049
 H  231.144956   77.574957  183.715101
 H  231.221958   76.676764  185.236892
 H  233.096373   78.014484  186.026141
 H  233.475969   77.518263  184.369508
