37 
3r6c_ligand_ani-2x.xyz
 C   10.262978   -6.252541   24.613106
 O    2.236987   -6.457021   29.844888
 O    4.093698   -4.001556   28.301940
 O    3.298955   -7.005362   27.974374
 O    4.681134   -4.403962   26.199316
 C   10.528467   -7.456544   28.616419
 C   10.471006   -7.061870   27.266096
 C    9.452868   -7.298990   29.452289
 C    4.622821   -6.636960   31.293654
 C    6.994481   -5.705858   27.112167
 C    7.519131   -6.870141   33.352824
 O    9.166117   -6.083931   25.489853
 O    6.107394   -6.972552   33.232465
 O    8.067927   -7.015060   32.051981
 C    3.274386   -6.614692   29.257737
 C    5.851643   -6.753731   31.908100
 C    9.316492   -6.501947   26.771900
 C    4.614754   -6.448436   29.918771
 C    5.893108   -5.556551   27.896438
 C    7.030400   -6.767879   31.187706
 C    8.177005   -6.324004   27.619056
 C    8.252110   -6.734065   28.966361
 C    5.831429   -6.193105   29.202438
 C    7.065149   -6.577406   29.802520
 C    4.832121   -4.622995   27.371790
 H   11.138941   -5.688011   24.956371
 H   10.532028   -7.311187   24.509415
 H    9.934983   -5.864177   23.648555
 H    4.367563   -4.311752   29.177532
 H    4.220722   -7.076970   27.685835
 H   11.450454   -7.893877   28.994376
 H   11.343818   -7.205079   26.637711
 H    9.516674   -7.606454   30.488569
 H    3.683316   -6.714850   31.828584
 H    6.966916   -5.326260   26.098121
 H    7.885271   -7.673183   33.996965
 H    7.786454   -5.881344   33.756077
