76 
3r6g_ligand_aiqm1.xyz
 C    4.879903    0.571310    0.620848
 O    4.371686   -0.367276    1.226371
 C    6.302804    0.540288    0.130213
 N    4.177061    1.698366    0.334619
 C    2.756355    1.793007    0.638670
 C    1.967811    1.088555   -0.486769
 O    1.470510    1.681600   -1.442315
 C    2.298783    3.218202    0.955890
 C    0.821945    3.200641    1.361654
 C    2.564415    4.241367   -0.146290
 N    1.917855   -0.244949   -0.330726
 C    1.308394   -1.140268   -1.299194
 C    0.398967   -2.199076   -0.660233
 O    0.015757   -3.159769   -1.320393
 C    2.354005   -1.777174   -2.228022
 C    3.579702   -2.246762   -1.493776
 O    4.716281   -2.034274   -1.829763
 O    3.264186   -2.925713   -0.373679
 N    0.024669   -1.963789    0.612124
 C   -0.991377   -2.765571    1.285200
 C   -2.390234   -2.253190    0.870103
 O   -3.100172   -1.577151    1.608704
 C   -0.783213   -2.784674    2.800360
 C    0.397671   -3.688803    3.151271
 C   -0.584270   -1.395339    3.404192
 N   -2.741842   -2.615939   -0.383551
 C   -3.901697   -2.107701   -1.118715
 C   -3.650908   -0.642960   -1.521282
 O   -3.372541   -0.340134   -2.667782
 C   -5.229984   -2.327311   -0.404635
 N   -3.738593    0.280463   -0.516230
 C   -3.175588    1.595922   -0.746575
 C   -1.655951    1.517961   -0.821943
 O   -1.016418    0.673352   -0.236053
 C   -3.576795    2.539591    0.399833
 C   -3.189576    3.963771    0.093388
 O   -3.706504    4.648478   -0.749219
 O   -2.179225    4.399351    0.873841
 O   -1.115793    2.481032   -1.552187
 H    6.675193    1.531246   -0.128191
 H    6.927800    0.097001    0.900675
 H    6.346996   -0.102816   -0.749196
 H    4.564057    2.363808   -0.311927
 H    2.611984    1.204697    1.542582
 H    2.888235    3.511319    1.834354
 H    0.656554    2.514158    2.198611
 H    0.497053    4.194072    1.675114
 H    0.186806    2.886317    0.534347
 H    2.219290    5.222416    0.183906
 H    2.031154    3.981588   -1.056590
 H    3.627407    4.338116   -0.381818
 H    2.486464   -0.641495    0.409371
 H    0.641877   -0.540045   -1.912964
 H    1.890539   -2.631807   -2.721393
 H    2.675242   -1.056003   -2.976393
 H    4.098178   -3.124182    0.071843
 H    0.208074   -1.041284    0.972726
 H   -0.885530   -3.778525    0.896857
 H   -1.696049   -3.214586    3.221587
 H    0.264461   -4.695734    2.752683
 H    0.514136   -3.764076    4.232096
 H    1.323970   -3.281674    2.740299
 H    0.399960   -0.994151    3.146305
 H   -1.351489   -0.699640    3.068852
 H   -0.628678   -1.461909    4.491779
 H   -1.999831   -3.029240   -0.936116
 H   -3.914982   -2.648893   -2.062938
 H   -5.369202   -3.387497   -0.194803
 H   -6.043332   -1.985598   -1.044228
 H   -5.274380   -1.782370    0.534308
 H   -3.666865   -0.091981    0.422875
 H   -3.556710    1.981978   -1.690641
 H   -3.114747    2.205437    1.329640
 H   -4.662210    2.503510    0.492380
 H   -1.977481    5.295130    0.575687
 H   -0.149430    2.300475   -1.596438
