76 
3r6g_ligand_xtb.xyz
 C    4.557051    0.210841    0.874972
 O    3.824179   -0.643351    1.357792
 C    6.024352   -0.012504    0.638419
 N    4.089902    1.414305    0.492145
 C    2.710433    1.839542    0.673357
 C    1.855133    1.287603   -0.482072
 O    1.328171    1.969971   -1.348168
 C    2.631768    3.360015    0.887469
 C    1.208903    3.751349    1.282028
 C    3.091851    4.165679   -0.326846
 N    1.764972   -0.044634   -0.422849
 C    1.187853   -0.884017   -1.445650
 C    0.309382   -1.987105   -0.837603
 O   -0.014906   -2.968574   -1.486127
 C    2.283573   -1.525169   -2.318449
 C    3.432768   -1.992227   -1.456266
 O    4.587240   -1.707513   -1.643825
 O    3.024960   -2.732304   -0.429033
 N   -0.046506   -1.777583    0.433482
 C   -0.903006   -2.691263    1.165525
 C   -2.352762   -2.321622    0.810749
 O   -3.087914   -1.702117    1.563407
 C   -0.601666   -2.638222    2.670986
 C    0.716959   -3.353287    2.957359
 C   -0.555137   -1.209055    3.211243
 N   -2.679265   -2.709234   -0.433075
 C   -3.862565   -2.278700   -1.173454
 C   -3.695476   -0.792639   -1.541710
 O   -3.514636   -0.431311   -2.684483
 C   -5.162744   -2.567088   -0.428377
 N   -3.748868    0.049011   -0.486338
 C   -3.320360    1.422878   -0.629267
 C   -1.785580    1.465019   -0.637474
 O   -1.113219    0.832856    0.144579
 C   -3.866628    2.254513    0.538702
 C   -3.500175    3.709706    0.362740
 O   -4.254167    4.584499    0.042340
 O   -2.201746    3.922674    0.603382
 O   -1.301215    2.215972   -1.593081
 H    6.582782    0.918519    0.624053
 H    6.418879   -0.671311    1.407351
 H    6.130847   -0.513637   -0.324166
 H    4.698301    2.047846   -0.000862
 H    2.351935    1.344871    1.586607
 H    3.298911    3.588103    1.729004
 H    0.880814    3.193735    2.155946
 H    1.167411    4.812023    1.516231
 H    0.518227    3.549115    0.469576
 H    2.994220    5.227590   -0.115095
 H    2.481322    3.927532   -1.191844
 H    4.135019    3.972920   -0.570914
 H    2.282462   -0.521726    0.316888
 H    0.546639   -0.262099   -2.081381
 H    1.841936   -2.387277   -2.824091
 H    2.666399   -0.821714   -3.056971
 H    3.759507   -2.933625    0.174026
 H    0.005586   -0.836097    0.799153
 H   -0.696321   -3.698935    0.786280
 H   -1.418747   -3.168628    3.170424
 H    0.670423   -4.395247    2.649398
 H    0.938495   -3.319321    4.021047
 H    1.529729   -2.869974    2.419755
 H    0.358755   -0.705300    2.903542
 H   -1.414274   -0.642241    2.866249
 H   -0.573179   -1.230562    4.298198
 H   -1.934226   -3.115486   -0.991808
 H   -3.856292   -2.832311   -2.117230
 H   -5.268155   -3.639603   -0.282009
 H   -6.002497   -2.207982   -1.017135
 H   -5.175375   -2.084173    0.543166
 H   -3.712798   -0.352019    0.448744
 H   -3.679703    1.800872   -1.592143
 H   -3.426934    1.882852    1.466453
 H   -4.951740    2.161681    0.571798
 H   -1.972768    4.852972    0.447675
 H   -0.303913    2.194924   -1.609249
