21 
3r6u_ligand_ani-2x.xyz
 C   -3.480440    3.608981  -20.398791
 C   -4.326405    4.494175  -21.290728
 C   -6.479051    5.244920  -22.105363
 C   -6.072775    2.880897  -22.000959
 C   -6.424095    4.158764  -19.953883
 O   -3.692361    4.018150  -19.057125
 N   -5.813596    4.177894  -21.319156
 H   -2.427519    3.736834  -20.683409
 H   -3.742633    2.550525  -20.542021
 H   -3.983751    4.433247  -22.327918
 H   -4.231624    5.525424  -20.947279
 H   -7.551400    5.039410  -22.149639
 H   -6.306964    6.207960  -21.618361
 H   -6.064732    5.261369  -23.117377
 H   -5.658486    2.056040  -21.422318
 H   -7.154238    2.745168  -22.095755
 H   -5.620329    2.904807  -22.995932
 H   -7.506856    4.046306  -20.059830
 H   -6.017757    3.327262  -19.382856
 H   -6.192334    5.098305  -19.451496
 H   -3.218853    3.407861  -18.480602
