21 
3r6u_ligand_xtb.xyz
 C   -3.455603    3.567978  -20.568692
 C   -4.383804    4.629792  -21.171857
 C   -6.477120    5.159250  -22.239476
 C   -5.989725    2.863201  -21.726475
 C   -6.482644    4.413556  -19.957823
 O   -3.952400    3.134830  -19.323905
 N   -5.826519    4.255390  -21.271701
 H   -2.473690    4.043989  -20.460287
 H   -3.340674    2.716822  -21.253426
 H   -4.011487    4.855126  -22.172926
 H   -4.324933    5.534103  -20.563441
 H   -7.550539    4.978080  -22.253999
 H   -6.304628    6.197839  -21.962285
 H   -6.083498    4.993492  -23.240992
 H   -5.632850    2.179830  -20.959000
 H   -7.042475    2.657230  -21.910799
 H   -5.435813    2.698919  -22.649026
 H   -7.513165    4.069211  -20.013322
 H   -5.946243    3.832036  -19.210764
 H   -6.478373    5.460240  -19.660328
 H   -3.260017    2.683385  -18.830275
