21 
3r6u_ligand_dft.xyz
 C    1.715240   -0.726542    0.002363
 C    0.327421   -0.869614   -0.601043
 C   -2.085591   -0.576884   -0.347311
 C   -0.626363    0.089772    1.493421
 C   -0.680269    1.403097   -0.571018
 O    2.112653    0.621268   -0.058863
 N   -0.753118    0.013814    0.003273
 H    2.365756   -1.380220   -0.594124
 H    1.727583   -1.108237    1.032552
 H   -0.001838   -1.904015   -0.473539
 H    0.345111   -0.636008   -1.667933
 H   -2.871769    0.103300   -0.017040
 H   -2.140657   -0.708299   -1.428999
 H   -2.193939   -1.540596    0.152303
 H    0.293644    0.619445    1.738830
 H   -1.486047    0.634243    1.885993
 H   -0.612066   -0.921285    1.903664
 H   -1.443917    2.014457   -0.088079
 H    0.315555    1.801382   -0.389542
 H   -0.874780    1.345784   -1.642833
 H    3.045336    0.694228    0.178274
