60 
3r7b_ligand_ani-2x.xyz
 C   -2.591373    3.449734    2.948939
 O   -3.360833    3.942984    2.137685
 C   -2.424496    3.957269    4.367026
 N   -1.795043    2.392738    2.623473
 C   -1.971296    1.690550    1.375338
 C   -1.363972    0.285223    1.557561
 O   -0.800736   -0.036034    2.607649
 C   -1.367015    2.488678    0.199051
 C   -1.922067    2.115205   -1.152158
 O   -2.739695    1.253468   -1.387263
 O   -1.385909    2.866821   -2.142520
 N   -1.510062   -0.568869    0.530726
 C   -1.172640   -1.983849    0.630012
 C    0.338994   -2.142079    0.371091
 O    0.770375   -2.557683   -0.705891
 C   -2.005316   -2.822286   -0.347654
 C   -3.503029   -2.538531   -0.199470
 C   -1.718124   -4.310584   -0.145011
 N    1.125057   -1.783886    1.408319
 C    2.586832   -1.705521    1.354246
 C    3.039479   -0.513174    0.493501
 O    3.569300    0.462438    1.001447
 C    3.243927   -3.028587    0.959236
 N    2.804512   -0.623686   -0.847457
 C    2.848847    0.564281   -1.665617
 C    1.440515    1.130282   -1.828728
 O    1.439163    2.446663   -2.032683
 C    3.474928    0.244058   -3.038139
 C    3.706507    1.493917   -3.856450
 O    4.626595    2.258688   -3.697473
 O    2.753347    1.672201   -4.786632
 O    0.434265    0.456434   -1.782248
 H   -1.422476    4.376274    4.509915
 H   -2.556227    3.149225    5.095409
 H   -3.166300    4.735203    4.550468
 H   -1.260581    1.901432    3.328652
 H   -3.044754    1.585204    1.170972
 H   -1.610946    3.542243    0.364432
 H   -0.274511    2.411466    0.191399
 H   -1.784828    2.555844   -2.975867
 H   -1.917983   -0.240178   -0.335843
 H   -1.377309   -2.292769    1.664815
 H   -1.687088   -2.540112   -1.361474
 H   -3.762412   -1.502626   -0.446473
 H   -4.077279   -3.189513   -0.867678
 H   -3.837641   -2.737440    0.827043
 H   -0.662122   -4.538390   -0.310098
 H   -2.312037   -4.912161   -0.841914
 H   -1.986653   -4.619379    0.873647
 H    0.661417   -1.252473    2.143836
 H    2.902201   -1.436585    2.365598
 H    2.958407   -3.339154   -0.046491
 H    2.935090   -3.808790    1.661135
 H    4.333227   -2.928272    1.004701
 H    2.162729   -1.364209   -1.134847
 H    3.463496    1.306124   -1.143667
 H    0.507301    2.738261   -2.141119
 H    2.843203   -0.455693   -3.595339
 H    4.446728   -0.215368   -2.846210
 H    2.956013    2.514975   -5.226507
