25 
3r88_ligand_xtb.xyz
 C   -8.136414  -29.598875    5.756573
 C   -4.673832  -32.102723    9.037492
 N   -3.585087  -28.101188    4.168221
 O   -0.811687  -30.246210    6.446649
 O   -1.159911  -28.503752    5.151091
 C   -5.379127  -29.128212    5.349557
 C   -3.599709  -30.438179    7.005875
 O   -7.169171  -30.225064    6.563035
 O   -5.516938  -31.423722    8.144318
 C   -1.647706  -29.389024    5.823525
 C   -4.002897  -28.910988    5.167813
 C   -5.862444  -29.969047    6.325901
 C   -4.946679  -30.632353    7.185876
 C   -3.089830  -29.593741    5.999560
 H   -8.094345  -28.508923    5.851105
 H   -8.023693  -29.877459    4.703803
 H   -9.098032  -29.954776    6.122407
 H   -4.016794  -32.809950    8.518074
 H   -4.066747  -31.409627    9.630871
 H   -5.335996  -32.654878    9.702320
 H   -4.252674  -27.526307    3.687649
 H   -2.603524  -27.858577    4.155308
 H   -1.284566  -30.965011    6.883324
 H   -6.056095  -28.603784    4.693385
 H   -2.919101  -30.920227    7.692766
