66 
3r8i_ligand_ani-2x.xyz
 N   17.266305    9.711768   10.820749
 N   16.216781    7.606932   11.136752
 C   10.472649    2.919887    7.340960
 C   21.048912    4.393294   16.972045
 C   22.093900    6.684976   17.084427
 O   21.072561    5.950848   20.178403
 O   22.709040    4.730264   19.299231
 C   16.978462   12.850486    8.804801
 C   15.839421   12.477290    8.079892
 C   17.422075    6.170022   15.240666
 C   18.390695    8.358073   15.334989
 C   18.214190    5.761649   16.304613
 C   19.195196    7.963215   16.397625
 C   17.549335   12.007121    9.751751
 C   15.226755   11.242858    8.275612
 C   11.591730    3.920326    7.620283
 C   11.567386    4.439572    9.058509
 C   12.629758    5.496461    9.374980
 C   14.065869    4.966528    9.353531
 C   15.136739    6.045734    9.534393
 C   16.634647    7.880061   13.567727
 C   15.045011    6.778781   10.872606
 C   17.110821    7.285202   12.234132
 O   19.847299    6.287165   17.986342
 O   15.426415    9.165184    9.617378
 C   21.715937    5.394973   19.149034
 C   17.493203    7.471639   14.739727
 C   19.107519    6.661218   16.883436
 C   16.348302    8.823674   10.567075
 C   16.946543   10.766268    9.958373
 C   15.814734   10.427097    9.220921
 C   21.145806    5.695710   17.756852
 H   10.550671    2.049621    8.003139
 H    9.487949    3.373021    7.505116
 H   10.507640    2.558400    6.308152
 H   20.376720    3.688003   17.470229
 H   20.692504    4.571272   15.953264
 H   22.043104    3.944279   16.922524
 H   21.762521    6.928153   16.070583
 H   22.166008    7.606542   17.669933
 H   23.087815    6.233078   17.025820
 H   20.281959    6.395706   19.827240
 H   17.429311   13.823290    8.624499
 H   15.425339   13.166771    7.349007
 H   16.735410    5.461200   14.782929
 H   18.466978    9.377734   14.965104
 H   18.151818    4.747179   16.688302
 H   19.894091    8.658057   16.855866
 H   18.433181   12.309345   10.307064
 H   14.344077   10.948214    7.717079
 H   11.506349    4.770778    6.930069
 H   12.558501    3.447656    7.406484
 H   11.679865    3.591256    9.750241
 H   10.574409    4.865581    9.257710
 H   12.409508    5.921630   10.362710
 H   12.542402    6.326566    8.656894
 H   14.254854    4.454783    8.401351
 H   14.178316    4.201366   10.136575
 H   15.069648    6.779234    8.723356
 H   16.127453    5.581790    9.463619
 H   15.599153    7.555686   13.738354
 H   16.618854    8.970673   13.456971
 H   14.137469    7.393180   10.921940
 H   14.987865    6.051480   11.692731
 H   18.103853    7.669687   11.984947
 H   17.183311    6.193013   12.310883
