66 
3r8i_ligand_aiqm1.xyz
 N   16.912897    9.746209   11.281995
 N   15.803877    7.671714   11.517897
 C   10.913414    2.821382    6.852074
 C   20.784212    4.284883   17.184596
 C   22.190155    6.185892   16.327539
 O   21.860922    6.346115   19.781246
 O   23.192441    4.876706   18.786125
 C   16.831569   12.871947    9.241632
 C   15.753744   12.513265    8.424052
 C   17.204488    6.450680   15.859076
 C   18.551118    8.265029   15.065630
 C   18.179031    6.125729   16.798756
 C   19.534134    7.952906   15.998166
 C   17.311224   12.021989   10.236680
 C   15.107689   11.284251    8.568730
 C   12.058287    3.731901    7.280810
 C   11.660940    4.646905    8.434837
 C   12.743760    5.639154    8.853599
 C   13.968440    4.974055    9.476946
 C   15.069719    5.946621    9.890867
 C   16.351595    7.841852   13.925022
 C   14.706139    6.809701   11.097056
 C   16.728196    7.252210   12.562594
 O   20.296303    6.597442   17.828103
 O   15.170209    9.206824    9.926850
 C   22.224620    5.586764   18.741481
 C   17.375052    7.516682   14.975823
 C   19.349683    6.876954   16.863474
 C   16.005613    8.869847   10.954263
 C   16.677334   10.794924   10.390415
 C   15.606331   10.465342    9.561975
 C   21.345877    5.669158   17.486518
 H   10.590101    2.190130    7.682105
 H   10.051557    3.407393    6.525933
 H   11.207640    2.170070    6.028864
 H   20.158348    3.939522   18.008559
 H   20.192293    4.304315   16.269427
 H   21.606742    3.583314   17.051735
 H   21.602626    6.216330   15.410027
 H   22.565493    7.186657   16.545219
 H   23.038521    5.519850   16.174909
 H   21.062290    6.830992   19.532777
 H   17.304526   13.834165    9.097720
 H   15.411172   13.200233    7.663044
 H   16.296594    5.860462   15.813358
 H   18.700357    9.099351   14.391651
 H   18.037074    5.297808   17.482237
 H   20.443069    8.537968   16.062842
 H   18.142139   12.302172   10.866512
 H   14.274149   10.994827    7.943916
 H   12.381198    4.344354    6.433813
 H   12.920932    3.122868    7.565887
 H   11.378062    4.034265    9.299080
 H   10.764811    5.203212    8.145844
 H   12.309001    6.354785    9.557784
 H   13.058246    6.220012    7.979748
 H   14.387037    4.258051    8.764960
 H   13.655183    4.385722   10.348577
 H   15.331166    6.598647    9.051373
 H   15.970377    5.376660   10.142426
 H   15.367726    7.464161   14.219763
 H   16.270613    8.923638   13.807245
 H   13.835436    7.434907   10.890689
 H   14.456290    6.166894   11.945120
 H   17.730226    7.578868   12.282897
 H   16.722891    6.160867   12.597633
