64 
3r91_ligand_ani-2x.xyz
 C   -1.227726   -4.335342    0.308871
 C   -1.275217   -2.848075    0.521853
 C   -0.236043   -1.951818    0.589145
 N   -0.746627   -0.661718    0.787428
 C   -2.121381   -0.757357    0.828545
 C   -2.463012   -2.082827    0.676941
 C   -3.866724   -2.519947    0.628615
 O   -4.211861   -3.675956    0.462420
 C   -4.883124   -1.408361    0.838647
 C   -4.452184   -0.010725    0.343297
 C   -3.103887    0.357360    0.993855
 C   -4.321536   -0.006399   -1.185884
 C   -5.505935    1.012442    0.765814
 C    0.003323    0.547505    0.791154
 C   -0.202219    1.537276    1.752811
 C    0.472895    2.742328    1.643008
 C    1.389258    2.990727    0.613952
 C    1.747713    1.904235   -0.219254
 C    0.978623    0.747625   -0.180858
 N    2.841694    1.952334   -1.119944
 C    4.074652    1.261750   -0.690014
 C    3.884188   -0.258212   -0.530589
 O    4.155742   -0.795926    0.534640
 N    3.438576   -0.973173   -1.608313
 C    3.070211   -2.375371   -1.398240
 C    1.590963   -2.581905   -1.056102
 C    1.222790   -2.267092    0.413782
 C    3.115686   -0.377467   -2.896774
 C    4.686405    1.847663    0.577820
 C    1.960039    4.359587    0.421215
 O    2.982198    4.592167   -0.219384
 N    1.280641    5.385955    1.022332
 H   -1.814206   -4.849989    1.076763
 H   -1.686890   -4.594645   -0.651998
 H   -0.203074   -4.723710    0.325773
 H   -5.820513   -1.712145    0.364557
 H   -5.072259   -1.356606    1.920729
 H   -2.723099    1.297026    0.572379
 H   -3.277513    0.531307    2.066998
 H   -3.574151   -0.727096   -1.534321
 H   -4.025090    0.987907   -1.540062
 H   -5.280029   -0.261350   -1.652899
 H   -5.220522    2.020630    0.443785
 H   -6.480851    0.780842    0.320672
 H   -5.628925    1.029874    1.855258
 H   -0.904091    1.385389    2.566965
 H    0.292001    3.507734    2.391939
 H    1.125188   -0.011621   -0.937394
 H    3.079481    2.933233   -1.258353
 H    4.784178    1.406772   -1.519048
 H    3.305741   -2.914905   -2.323277
 H    3.713665   -2.765431   -0.606016
 H    0.990491   -1.965140   -1.739640
 H    1.305217   -3.618892   -1.274669
 H    1.464104   -3.151168    1.022435
 H    1.853377   -1.472328    0.824424
 H    3.079165   -1.173087   -3.647777
 H    2.150369    0.147879   -2.902674
 H    3.886071    0.338385   -3.199787
 H    5.633096    1.350214    0.803729
 H    4.862737    2.919726    0.443953
 H    4.015849    1.708484    1.431796
 H    0.290446    5.296141    1.191534
 H    1.602313    6.304886    0.753237
