34 
3rcj_ligand_xtb.xyz
 C  -13.916546  -25.825324   -9.647364
 C  -12.687295  -26.200564   -9.103362
 N  -12.169821  -25.676543   -8.007404
 C  -14.679622  -24.849869   -9.033234
 C  -14.173776  -24.275425   -7.871210
 C  -12.905779  -24.743203   -7.424755
 N  -12.578483  -24.063031   -6.293735
 C  -13.580147  -23.184517   -5.999935
 C  -14.581986  -23.274609   -6.932456
 C  -15.789814  -22.489953   -6.915803
 N  -15.991420  -21.514342   -5.991762
 N  -17.131937  -20.974127   -6.183370
 N  -17.720967  -21.562825   -7.215609
 C  -16.915885  -22.524760   -7.720438
 C  -19.008265  -21.141892   -7.699860
 C  -18.888177  -20.544827   -9.080328
 C  -19.603941  -21.060961  -10.150372
 C  -19.466005  -20.509879  -11.413170
 C  -18.604896  -19.445629  -11.615486
 C  -17.883572  -18.929714  -10.551157
 C  -18.025407  -19.475240   -9.288690
 H  -14.263528  -26.302496  -10.550964
 H  -12.085575  -26.963686   -9.577975
 H  -15.629345  -24.548769   -9.449615
 H  -11.731261  -24.196485   -5.768333
 H  -13.536010  -22.539200   -5.145283
 H  -17.199429  -23.120149   -8.560920
 H  -19.374403  -20.396945   -6.987168
 H  -19.693204  -21.996040   -7.708822
 H  -20.275360  -21.894145   -9.996467
 H  -20.029606  -20.916039  -12.240025
 H  -18.495013  -19.018835  -12.601190
 H  -17.210080  -18.099941  -10.704978
 H  -17.464443  -19.076036   -8.455760
