33 
3rdq_ligand_aiqm1.xyz
 C   -0.527368    1.978864   -0.860470
 O    0.237765    2.775326   -1.385985
 N   -0.356278    1.328310    0.321380
 C   -1.410972    0.363084    0.603541
 C   -2.529350    0.942016   -0.306585
 N   -1.742429    1.551737   -1.376878
 C   -3.568786   -0.026263   -0.835797
 C   -1.031045   -1.087228    0.268203
 C   -0.071141   -1.768473    1.250437
 C    1.368467   -1.248400    1.311862
 C    2.140849   -1.367914   -0.007155
 C    3.364352   -0.431912   -0.059196
 C    2.847805    0.975787   -0.169644
 O    2.595630    1.680740    0.786079
 O    2.591026    1.323346   -1.429557
 H    0.488850    1.454443    0.855955
 H   -1.712147    0.414576    1.654241
 H   -3.037649    1.723917    0.274895
 H   -2.188224    2.199860   -2.006333
 H   -4.097815   -0.506348   -0.010661
 H   -3.115339   -0.795397   -1.460226
 H   -4.300759    0.511164   -1.439279
 H   -0.646561   -1.128075   -0.753924
 H   -1.952167   -1.672209    0.272819
 H   -0.497041   -1.707773    2.257601
 H   -0.043752   -2.833225    0.998963
 H    1.902402   -1.820967    2.076520
 H    1.378471   -0.216835    1.664778
 H    2.468040   -2.400180   -0.145918
 H    1.493918   -1.127822   -0.854065
 H    3.981449   -0.671732   -0.924464
 H    3.953836   -0.527502    0.854121
 H    2.015963    2.115085   -1.425553
