27 
3rf5_ligand_aiqm1.xyz
 O   25.564854  -20.765212   30.556031
 O   24.939200  -21.240333   32.614927
 C   21.358602  -17.998761   31.257233
 C   21.330560  -19.126366   32.077160
 C   22.412511  -18.066706   25.841079
 C   23.192468  -19.165463   25.994131
 C   22.843567  -17.138332   26.846478
 C   22.474003  -17.704315   30.489271
 C   22.448914  -19.943449   32.128446
 C   24.718363  -17.319270   28.674584
 N   24.750408  -18.232975   29.801375
 O   24.075082  -18.988164   27.013485
 C   24.770693  -20.578076   31.445612
 C   23.853173  -17.746058   27.524698
 C   23.609227  -18.537930   30.517437
 C   23.594685  -19.666420   31.372110
 H   24.315945  -20.904647   33.265470
 H   20.494505  -17.347882   31.206770
 H   20.452937  -19.369365   32.658148
 H   21.632213  -17.935592   25.110448
 H   23.245679  -20.111894   25.487783
 H   22.458193  -16.149702   27.031801
 H   22.466993  -16.834890   29.848558
 H   22.414040  -20.841546   32.738138
 H   25.747887  -17.216936   28.324929
 H   24.394535  -16.330717   29.002732
 H   25.369362  -19.020899   29.681066
