27 
3rf5_ligand_ani-2x.xyz
 O   25.519679  -20.766351   30.512351
 O   24.920469  -21.287087   32.569383
 C   21.362792  -17.952961   31.302553
 C   21.329318  -19.084585   32.112266
 C   22.430993  -18.112730   25.824793
 C   23.297932  -19.148414   25.917996
 C   22.798659  -17.198211   26.868691
 C   22.476155  -17.674255   30.522524
 C   22.437276  -19.919588   32.147155
 C   24.702557  -17.328716   28.671052
 N   24.714158  -18.257663   29.777237
 O   24.171532  -18.948959   26.938149
 C   24.744900  -20.590188   31.429163
 C   23.860917  -17.755534   27.505952
 C   23.593899  -18.523804   30.534282
 C   23.579186  -19.654166   31.387381
 H   24.357030  -20.933204   33.271473
 H   20.509899  -17.279177   31.271428
 H   20.455579  -19.306989   32.718570
 H   21.629847  -18.004144   25.106592
 H   23.429754  -20.066611   25.364784
 H   22.326871  -16.252474   27.105241
 H   22.468224  -16.790805   29.890138
 H   22.394873  -20.825039   32.752398
 H   25.743941  -17.205897   28.352317
 H   24.362900  -16.344215   29.006099
 H   25.309258  -19.070132   29.649935
