36 
3rhx_ligand_xtb.xyz
 C   -1.581578    0.419509   -0.085687
 C   -0.975254    0.572796   -1.340082
 N   -2.307480    1.385373    0.464067
 C   -2.434880    2.515793   -0.229755
 N   -3.229259    3.476634    0.297304
 N   -1.871298    2.774621   -1.412347
 C   -1.155799    1.802227   -1.951024
 C   -0.204151   -0.562648   -1.932115
 C    0.580721   -1.305523   -0.837226
 C    1.740002   -0.445890   -0.375869
 C   -0.341295   -1.678713    0.292945
 C   -1.391123   -0.827188    0.655134
 C    1.642596    0.421203    0.703719
 C    2.711875    1.227185    1.055335
 C    3.892180    1.178176    0.335309
 C    3.999930    0.313761   -0.740652
 C    2.931258   -0.490192   -1.091307
 C   -0.142459   -2.844366    1.015872
 C   -0.975579   -3.173403    2.071828
 C   -2.018368   -2.331154    2.423498
 C   -2.222677   -1.160282    1.719873
 H   -3.192519    4.389702   -0.118599
 H   -3.507484    3.380335    1.257122
 H   -0.705504    2.027678   -2.910685
 H   -0.904986   -1.262629   -2.401892
 H    0.477041   -0.196796   -2.703510
 H    0.996186   -2.221757   -1.272221
 H    0.731879    0.469901    1.281366
 H    2.619693    1.897130    1.897812
 H    4.724809    1.808106    0.611710
 H    4.918336    0.265166   -1.307657
 H    3.021769   -1.163135   -1.933230
 H    0.673289   -3.501503    0.748473
 H   -0.809923   -4.088774    2.620938
 H   -2.667583   -2.588538    3.247366
 H   -3.022266   -0.482705    1.975788
