36 
3ri1_ligand_dft.xyz
 C   -1.498082    0.030263    0.230897
 C   -0.924799   -0.866232    1.139542
 N   -2.551732   -0.291960   -0.521235
 C   -3.039099   -1.529501   -0.364079
 N   -4.155757   -1.847060   -1.084496
 N   -2.552303   -2.484151    0.443981
 C   -1.503804   -2.126838    1.180459
 C    0.225659   -0.429586    2.001555
 C    1.174534    0.511478    1.232869
 C    2.051202   -0.264821    0.255486
 C    0.381627    1.623225    0.572228
 C   -0.909924    1.379766    0.078823
 C    1.727824   -0.424041   -1.092617
 C    2.538535   -1.185645   -1.930583
 C    3.686877   -1.795310   -1.436239
 C    4.021777   -1.638977   -0.093779
 C    3.208898   -0.879729    0.740128
 C    0.942533    2.887206    0.400957
 C    0.235455    3.900497   -0.236132
 C   -1.047504    3.655323   -0.722087
 C   -1.614404    2.397851   -0.568451
 H   -4.372760   -2.827628   -1.165647
 H   -4.370458   -1.254197   -1.870087
 H   -1.100412   -2.894580    1.840741
 H   -0.158851    0.107460    2.879930
 H    0.780753   -1.298117    2.372341
 H    1.845000    0.970873    1.968895
 H    0.842559    0.055341   -1.498836
 H    2.270839   -1.298770   -2.977140
 H    4.319191   -2.385984   -2.092402
 H    4.919765   -2.103371    0.303404
 H    3.475969   -0.758722    1.788155
 H    1.947644    3.074804    0.770345
 H    0.685802    4.881592   -0.354807
 H   -1.602764    4.444522   -1.219938
 H   -2.607551    2.179400   -0.946563
