36 
3ri1_ligand_ani-2x.xyz
 C   -1.777834    0.481260   -0.124480
 C   -1.112277    0.747112   -1.318130
 N   -2.704906    1.314675    0.390820
 C   -2.912050    2.441854   -0.274611
 N   -3.863468    3.291841    0.223293
 N   -2.299729    2.835588   -1.410458
 C   -1.423945    1.973888   -1.903942
 C   -0.177590   -0.260642   -1.941206
 C    0.572383   -1.109219   -0.894147
 C    1.868806   -0.457040   -0.397242
 C   -0.344719   -1.507683    0.244296
 C   -1.452859   -0.738877    0.622594
 C    1.861799    0.547168    0.571053
 C    3.048310    1.159726    0.962947
 C    4.260022    0.773109    0.397999
 C    4.280031   -0.233602   -0.561678
 C    3.091494   -0.842394   -0.951913
 C   -0.027494   -2.638458    0.995124
 C   -0.795079   -3.021629    2.084293
 C   -1.902682   -2.254646    2.451822
 C   -2.225348   -1.120279    1.733159
 H   -3.808173    4.245237   -0.100290
 H   -4.103055    3.150852    1.193190
 H   -0.934329    2.275531   -2.834002
 H   -0.750359   -0.942541   -2.585627
 H    0.543605    0.251671   -2.585394
 H    0.895192   -2.035701   -1.387956
 H    0.919087    0.845910    1.029201
 H    3.026226    1.942009    1.717383
 H    5.184945    1.253557    0.707252
 H    5.221192   -0.547599   -1.006937
 H    3.115243   -1.636127   -1.697036
 H    0.844889   -3.225943    0.715404
 H   -0.534861   -3.912065    2.650162
 H   -2.508343   -2.545434    3.306783
 H   -3.074023   -0.501009    2.009875
