51 
3rin_ligand_aiqm1.xyz
 C    6.728807   30.471889   30.754365
 C    5.544407   31.156847   31.041002
 C    4.405879   30.893635   30.252463
 C    4.491721   29.948961   29.230164
 C    5.672052   29.262040   28.959599
 C    6.803361   29.538521   29.727231
 C    5.523242   32.133745   32.187756
 C    5.657839   28.271556   27.837117
 N    6.636479   27.320160   27.898497
 C    6.687727   26.215307   26.993021
 C    6.884822   26.514427   25.538155
 C    8.006322   25.911244   26.333330
 O    4.831489   28.325197   26.942997
 C    3.099717   31.580597   30.468693
 C    3.003284   32.984268   30.458587
 C    1.756542   33.555042   30.628660
 C    0.591720   32.793724   30.813629
 C    0.689504   31.414079   30.822431
 C    1.941519   30.814359   30.644116
 N    1.414631   34.910140   30.654030
 C    0.057009   35.093349   30.812519
 C   -0.593506   33.709971   30.988384
 O   -0.504567   36.165672   30.822099
 C   -1.266638   33.613928   32.385782
 C   -2.728974   33.975296   32.126018
 C   -3.013415   33.248247   30.812318
 C   -1.762335   33.544224   29.969853
 H    7.610171   30.674819   31.352584
 H    3.629664   29.740628   28.609551
 H    7.750658   29.057493   29.512523
 H    6.331437   31.913152   32.885903
 H    5.660855   33.160919   31.841703
 H    4.577465   32.098295   32.725598
 H    7.127076   27.226708   28.771634
 H    6.052627   25.370871   27.236473
 H    6.951829   27.561702   25.279739
 H    6.351718   25.895482   24.831765
 H    8.257266   24.874182   26.169349
 H    8.837761   26.553842   26.589119
 H    3.881827   33.600963   30.315889
 H   -0.189335   30.795081   30.959907
 H    2.019596   29.735206   30.637186
 H    2.038260   35.675832   30.477203
 H   -0.773561   34.247637   33.123448
 H   -1.199601   32.580362   32.738583
 H   -2.820465   35.052932   31.979301
 H   -3.388678   33.676097   32.940177
 H   -3.927199   33.580190   30.321380
 H   -3.106695   32.173629   31.000809
 H   -1.546811   32.775386   29.230106
 H   -1.897903   34.491167   29.447457
