51 
3rin_ligand_dft.xyz
 C   -2.824420    2.662661   -0.448558
 C   -1.464021    2.348686   -0.454494
 C   -1.083786    1.011348   -0.230621
 C   -2.067055    0.042367   -0.033285
 C   -3.422476    0.363198   -0.049205
 C   -3.797155    1.692133   -0.245142
 C   -0.451994    3.437651   -0.715599
 C   -4.403902   -0.751243    0.174759
 N   -5.668278   -0.533259   -0.310131
 C   -6.664509   -1.557640   -0.234409
 C   -7.359861   -1.775620    1.075654
 C   -8.092945   -1.121128   -0.064453
 O   -4.094216   -1.780135    0.752092
 C    0.345456    0.589365   -0.212091
 C    1.238157    1.147050    0.715584
 C    2.549070    0.706568    0.709421
 C    3.004809   -0.266786   -0.186149
 C    2.122369   -0.817335   -1.095377
 C    0.792344   -0.388503   -1.104317
 N    3.609831    1.097325    1.530835
 C    4.770063    0.409396    1.241918
 C    4.469620   -0.523380    0.055632
 O    5.827774    0.537239    1.821603
 C    5.386615   -0.147635   -1.147782
 C    6.552210   -1.134535   -1.069553
 C    5.856147   -2.438315   -0.675584
 C    4.855565   -1.996881    0.404232
 H   -3.127659    3.694097   -0.609806
 H   -1.783505   -0.988887    0.153651
 H   -4.842994    1.985102   -0.212690
 H   -0.917154    4.278922   -1.237569
 H   -0.027057    3.825934    0.217171
 H    0.382218    3.073121   -1.321589
 H   -5.785512    0.173959   -1.020484
 H   -6.470676   -2.439652   -0.841727
 H   -7.047421   -1.148240    1.903240
 H   -7.613573   -2.795295    1.344537
 H   -8.860245   -1.684075   -0.586060
 H   -8.283857   -0.054336    0.008651
 H    0.895003    1.888441    1.430821
 H    2.457296   -1.576927   -1.797389
 H    0.091403   -0.811245   -1.817568
 H    3.555111    1.763520    2.285642
 H    5.696339    0.901027   -1.120333
 H    4.824566   -0.302676   -2.076504
 H    7.242882   -0.824454   -0.277600
 H    7.110885   -1.203615   -2.008003
 H    6.544639   -3.207865   -0.314504
 H    5.324085   -2.850488   -1.542857
 H    3.971300   -2.637311    0.458794
 H    5.342784   -2.012887    1.384201
