89 
3rjm_ligand_aiqm1.xyz
 C    5.514457   -0.543655   -1.845433
 O    4.926209   -1.623213   -1.863600
 C    6.385935   -0.105066   -2.996219
 N    5.424346    0.316324   -0.820463
 C    4.549760    0.092144    0.318229
 C    3.709467    1.359391    0.464791
 O    4.214044    2.474725    0.395856
 C    5.343150   -0.221341    1.595865
 C    4.419509   -0.345689    2.803292
 C    6.134243   -1.512470    1.405404
 N    2.400336    1.140319    0.652592
 C    1.410966    2.185802    0.707769
 C    0.097212    1.473373    1.070926
 O    0.088016    0.260603    1.246865
 C    1.305724    2.888486   -0.666551
 C    0.713259    4.264473   -0.618271
 O   -0.053399    4.682169    0.222217
 O    1.103744    5.015836   -1.657526
 N   -1.037662    2.204279    1.138611
 C   -2.257067    1.473457    0.828187
 C   -2.177821    1.023737   -0.647971
 O   -1.708436    1.764600   -1.502181
 C   -3.523447    2.295812    1.109312
 C   -3.683684    2.522780    2.609159
 C   -3.560525    3.619126    0.349723
 C   -2.351561   -2.195834    0.613894
 N   -2.581410   -0.228392   -0.953219
 O   -2.848955   -2.975751    1.416954
 C   -3.253181   -1.164934   -0.067497
 C   -4.236317   -1.874415   -1.025099
 C   -2.747712   -0.575197   -2.376885
 C   -3.452821   -1.929429   -2.325461
 O   -5.352644   -1.031918   -1.227944
 C   -6.370032   -1.158306   -0.226883
 C   -7.360684   -2.237813   -0.634151
 C   -7.023952    0.201735   -0.099700
 C    0.516291   -2.449835    2.088887
 N   -1.060082   -2.246563    0.219093
 O    1.690743   -2.552397    2.343168
 C   -0.129246   -3.134341    0.887764
 C    0.918543   -3.716132   -0.055788
 C    1.930206   -2.707066   -0.542188
 O    1.708513   -1.517948   -0.648476
 O    3.085060   -3.275524   -0.840296
 H    7.076503    0.686568   -2.708469
 H    6.938019   -0.963612   -3.369448
 H    5.747009    0.256729   -3.801806
 H    5.836486    1.233447   -0.886981
 H    3.911130   -0.760020    0.081425
 H    6.039228    0.608317    1.759624
 H    3.671153   -1.118089    2.624093
 H    3.908663    0.592045    3.028491
 H    4.997638   -0.633422    3.682230
 H    5.450067   -2.339473    1.203549
 H    6.693725   -1.753872    2.310981
 H    6.838041   -1.444889    0.572340
 H    2.041421    0.192746    0.664139
 H    1.667612    2.918701    1.474757
 H    2.299833    2.958525   -1.104407
 H    0.686663    2.300418   -1.352262
 H    0.641351    5.860138   -1.577405
 H   -0.976655    3.163896    0.822803
 H   -2.272519    0.592893    1.467591
 H   -4.358703    1.675308    0.766727
 H   -3.655491    1.581713    3.161882
 H   -2.885728    3.162865    2.987922
 H   -4.635972    3.010615    2.816714
 H   -2.818357    4.322598    0.731844
 H   -4.541639    4.080272    0.467889
 H   -3.372521    3.472692   -0.713642
 H   -3.804827   -0.657075    0.720723
 H   -4.527162   -2.856263   -0.646615
 H   -1.775891   -0.594539   -2.867055
 H   -3.357743    0.186629   -2.859727
 H   -2.727444   -2.743043   -2.274596
 H   -4.110775   -2.086262   -3.177460
 H   -5.901385   -1.435687    0.724299
 H   -6.865928   -3.202731   -0.759325
 H   -7.834149   -1.969612   -1.579937
 H   -8.135320   -2.349163    0.125147
 H   -7.829197    0.171127    0.634276
 H   -7.434053    0.504524   -1.063609
 H   -6.293108    0.951648    0.214639
 H   -0.174571   -1.875504    2.726232
 H   -0.660805   -1.445744   -0.256053
 H   -0.723150   -3.954497    1.296864
 H    0.431496   -4.144985   -0.935623
 H    1.447662   -4.518457    0.453562
 H    3.711961   -2.597732   -1.174089
