26 
3rqw_ligand_xtb.xyz
 N -112.668643  -70.454537  -61.409718
 C -113.429326  -69.466919  -62.229872
 C -114.880917  -69.818824  -62.574210
 O -115.758161  -69.877011  -61.461538
 C -116.090614  -68.686654  -60.884645
 O -115.535630  -67.669256  -61.191575
 C -117.169134  -68.856302  -59.870125
 C -111.287304  -69.951849  -61.269142
 C -112.632360  -71.774558  -62.065291
 C -113.263426  -70.594005  -60.067391
 H -112.897845  -69.331586  -63.173893
 H -113.437889  -68.511693  -61.698180
 H -114.976421  -70.783320  -63.074313
 H -115.226078  -69.031721  -63.255885
 H -116.992987  -68.196083  -59.025235
 H -118.113523  -68.561584  -60.326650
 H -117.244780  -69.891011  -59.551411
 H -110.705112  -70.626480  -60.643734
 H -110.807750  -69.880612  -62.243778
 H -111.288293  -68.965507  -60.808368
 H -112.269027  -71.679361  -63.087085
 H -111.966051  -72.440169  -61.519074
 H -113.623513  -72.222032  -62.079441
 H -112.665597  -71.276154  -59.465467
 H -113.297659  -69.625825  -59.570119
 H -114.276260  -70.984749  -60.142161
