26 
3rqw_ligand_ani-2x.xyz
 N -112.580073  -70.374189  -61.311190
 C -113.070771  -69.113407  -62.010741
 C -114.537960  -69.071633  -62.381719
 O -115.327779  -69.214183  -61.191850
 C -116.664367  -69.161186  -61.383554
 O -117.171967  -68.992917  -62.465677
 C -117.402385  -69.338673  -60.082815
 C -111.113574  -70.475697  -61.516331
 C -113.217716  -71.604703  -61.859220
 C -112.822551  -70.307265  -59.839979
 H -112.484226  -69.016153  -62.927109
 H -112.827536  -68.273976  -61.356467
 H -114.801230  -69.858192  -63.095123
 H -114.770390  -68.113216  -62.851582
 H -117.116483  -68.551995  -59.377778
 H -118.475236  -69.295111  -60.268768
 H -117.143563  -70.303018  -59.634011
 H -110.742904  -71.362692  -60.997349
 H -110.901556  -70.559194  -62.585344
 H -110.629220  -69.582717  -61.111578
 H -113.047175  -71.652033  -62.938216
 H -112.763844  -72.476955  -61.380434
 H -114.285562  -71.583037  -61.645317
 H -112.417397  -71.213697  -59.379349
 H -112.299580  -69.433947  -59.441223
 H -113.889254  -70.228013  -59.655575
