65 
3rsv_ligand_dft.xyz
 C   -5.253967   -0.247766   -0.705213
 C   -6.687998   -0.775475   -0.889711
 C   -7.689564    0.365806   -1.112798
 C   -6.743238   -1.745678   -2.065367
 O   -7.058160   -1.566130    0.244069
 C   -6.947332   -0.920448    1.493535
 C   -5.520949   -0.453347    1.770964
 C   -5.042492    0.455089    0.642351
 N   -3.650265    0.815685    0.836078
 C   -3.094582    1.893623    0.215108
 O   -3.750342    2.734441   -0.382778
 C   -1.570067    1.919802    0.284252
 C   -1.031793    3.345714    0.304422
 C   -1.002765    1.116527   -0.927895
 C    0.155050    0.246835   -0.519201
 C   -0.069782   -0.971724    0.210695
 N    0.881580   -1.730534    0.691902
 N   -1.386918   -1.370894    0.481659
 C    1.455783    0.599650   -0.741963
 C    2.523403   -0.193311   -0.243001
 C    3.884837    0.129106   -0.440581
 C    2.176926   -1.355514    0.488812
 C    3.213879   -2.165117    1.009047
 C    4.527276   -1.828129    0.801649
 C    4.888208   -0.665540    0.070275
 C    6.327198   -0.355825   -0.155695
 C    7.130949   -1.334478   -0.750819
 C    8.481350   -1.114300   -0.990279
 C    9.049657    0.101089   -0.625008
 C    8.261847    1.073904   -0.020571
 C    6.901524    0.871164    0.225242
 C    6.106713    1.957916    0.910189
 H   -4.566192   -1.104806   -0.753114
 H   -4.993533    0.439169   -1.517752
 H   -7.650724    1.127183   -0.328730
 H   -7.483313    0.867798   -2.063317
 H   -8.705101   -0.040948   -1.145736
 H   -6.085622   -2.600105   -1.878073
 H   -6.425928   -1.251324   -2.989228
 H   -7.762259   -2.121084   -2.200423
 H   -7.640050   -0.067246    1.560885
 H   -7.264039   -1.657621    2.235908
 H   -4.866946   -1.334786    1.830889
 H   -5.469784    0.067256    2.733609
 H   -5.608355    1.391814    0.654958
 H   -3.016530    0.096795    1.171370
 H   -1.261917    1.407685    1.202763
 H   -1.335169    3.869698    1.215634
 H   -1.421196    3.904415   -0.551085
 H    0.063000    3.338559    0.261491
 H   -0.682703    1.820372   -1.702867
 H   -1.796654    0.514086   -1.388131
 H   -1.389979   -2.308368    0.869138
 H   -2.009647   -1.307768   -0.316122
 H    1.682889    1.509491   -1.294330
 H    4.134726    1.014125   -1.020636
 H    2.936511   -3.051237    1.570672
 H    5.317901   -2.451347    1.210404
 H    6.676433   -2.278205   -1.040918
 H    9.083621   -1.886424   -1.459537
 H   10.104508    0.289626   -0.801415
 H    8.714012    2.015943    0.280230
 H    6.769726    2.619289    1.475736
 H    5.365655    1.544312    1.600067
 H    5.563480    2.579925    0.189219
