65 
3rsv_ligand_aiqm1.xyz
 C   -5.141268    0.152419   -0.239934
 C   -6.606810   -0.016188   -0.662881
 C   -7.558067    0.033011    0.536455
 C   -6.995985    1.058893   -1.665989
 O   -6.763515   -1.245132   -1.389752
 C   -6.345250   -2.407649   -0.696598
 C   -4.875024   -2.320899   -0.325675
 C   -4.606439   -1.076556    0.502545
 N   -3.177045   -0.953933    0.770149
 C   -2.694431   -0.149674    1.747296
 O   -3.405579    0.423843    2.558012
 C   -1.178990   -0.023704    1.729100
 C   -0.617415    0.242782    3.116491
 C   -0.771801    1.083982    0.716512
 C    0.451315    0.667394   -0.055951
 C    0.351157   -0.321395   -1.092704
 N    1.373732   -0.835919   -1.727943
 N   -0.917749   -0.834744   -1.422475
 C    1.710386    1.110161    0.247516
 C    2.848329    0.591704   -0.423004
 C    4.169610    1.009731   -0.135622
 C    2.625290   -0.404524   -1.402005
 C    3.736924   -0.964124   -2.073196
 C    5.010056   -0.544207   -1.777325
 C    5.248448    0.458081   -0.793741
 C    6.649751    0.876437   -0.484358
 C    7.235813    1.918623   -1.205864
 C    8.541691    2.324902   -0.945858
 C    9.274036    1.681809    0.046260
 C    8.694760    0.641867    0.768303
 C    7.386629    0.224388    0.519843
 C    6.779617   -0.901079    1.316703
 H   -4.537491    0.291822   -1.149192
 H   -5.023636    1.045128    0.380897
 H   -7.295281   -0.670887    1.326598
 H   -7.547607    1.033460    0.973526
 H   -8.574369   -0.186416    0.202448
 H   -6.367526    0.985885   -2.555396
 H   -6.874230    2.050958   -1.225584
 H   -8.037281    0.929060   -1.962043
 H   -6.959839   -2.573521    0.195666
 H   -6.520839   -3.239590   -1.378415
 H   -4.278272   -2.265175   -1.243640
 H   -4.572422   -3.216073    0.221660
 H   -5.100632   -1.151819    1.473205
 H   -2.521301   -1.271121    0.067592
 H   -0.784596   -0.969033    1.349432
 H   -0.849859   -0.577511    3.796626
 H   -1.056938    1.151155    3.530138
 H    0.467373    0.363842    3.074491
 H   -0.588968    2.008985    1.264712
 H   -1.598296    1.291289    0.029716
 H   -0.839835   -1.451627   -2.219250
 H   -1.595059   -0.106163   -1.606385
 H    1.849356    1.853570    1.025661
 H    4.323879    1.774406    0.619284
 H    3.549493   -1.725012   -2.820662
 H    5.857666   -0.977395   -2.295006
 H    6.656362    2.411866   -1.976905
 H    8.980046    3.134349   -1.514265
 H   10.290522    1.986170    0.258301
 H    9.267055    0.140587    1.540810
 H    7.506112   -1.316238    2.015889
 H    6.430785   -1.701027    0.661283
 H    5.913155   -0.554527    1.884399
