65 
3rsv_ligand_ani-2x.xyz
 C   -5.222211    0.161130   -0.232447
 C   -6.716194    0.045254   -0.580474
 C   -7.602716    0.042605    0.670281
 C   -7.117722    1.198912   -1.491470
 O   -6.950421   -1.129855   -1.366760
 C   -6.511732   -2.340318   -0.783867
 C   -5.017165   -2.313175   -0.490572
 C   -4.661572   -1.122352    0.396660
 N   -3.226063   -1.053164    0.595272
 C   -2.695533   -0.370923    1.651620
 O   -3.385808    0.142050    2.519898
 C   -1.172715   -0.290416    1.652647
 C   -0.633441   -0.205530    3.077383
 C   -0.683338    0.902460    0.781318
 C    0.560072    0.566671   -0.003284
 C    0.446638   -0.311620   -1.136990
 N    1.454039   -0.745579   -1.839999
 N   -0.840602   -0.773183   -1.469850
 C    1.816037    0.982296    0.334322
 C    2.949539    0.547817   -0.410750
 C    4.279072    0.938017   -0.112079
 C    2.710180   -0.322612   -1.494455
 C    3.810126   -0.775132   -2.265532
 C    5.083394   -0.378220   -1.959559
 C    5.344322    0.467733   -0.849193
 C    6.757355    0.832717   -0.537706
 C    7.532264    1.435153   -1.532598
 C    8.837320    1.838409   -1.285713
 C    9.395606    1.612192   -0.033684
 C    8.642246    0.982247    0.951337
 C    7.327062    0.579873    0.724415
 C    6.574399   -0.129793    1.823610
 H   -4.664929    0.372602   -1.156302
 H   -5.071728    1.007852    0.447766
 H   -7.310372   -0.722452    1.397076
 H   -7.540884    1.014501    1.172731
 H   -8.644464   -0.134850    0.384198
 H   -6.543014    1.160022   -2.421741
 H   -6.931261    2.162239   -1.003875
 H   -8.181092    1.129322   -1.739741
 H   -7.074977   -2.564754    0.136354
 H   -6.752992   -3.122474   -1.511330
 H   -4.470181   -2.225735   -1.440989
 H   -4.706976   -3.247787   -0.009618
 H   -5.108936   -1.249445    1.389565
 H   -2.606932   -1.323415   -0.164526
 H   -0.808253   -1.214531    1.191534
 H   -0.909458   -1.091178    3.656894
 H   -1.042867    0.673127    3.586097
 H    0.459769   -0.125628    3.066137
 H   -0.487092    1.762935    1.431458
 H   -1.472577    1.227434    0.097426
 H   -0.796242   -1.300269   -2.337612
 H   -1.491239    0.001432   -1.570499
 H    1.972388    1.651565    1.181051
 H    4.451728    1.622124    0.716586
 H    3.601798   -1.433515   -3.103275
 H    5.918844   -0.731510   -2.562203
 H    7.085076    1.601915   -2.510672
 H    9.417296    2.318519   -2.068931
 H   10.418402    1.917184    0.174209
 H    9.084724    0.788036    1.926986
 H    7.262856   -0.526848    2.574507
 H    5.976113   -0.955986    1.427212
 H    5.884735    0.545603    2.341650
