58 
3rtn_ligand_xtb.xyz
 C   68.440085   49.271392    8.695245
 C   68.410617   48.279329    9.709343
 C   69.172964   48.458000   10.875054
 C   66.961743   48.098435    7.387792
 C   67.561383   47.168820    9.502336
 C   71.101617   51.235390   14.207913
 C   72.343788   49.209391   13.928331
 C   72.029432   47.686323   11.977193
 C   64.217550   47.268140    9.598144
 C   64.350904   49.568512   10.542926
 C   62.980352   50.580598   12.382149
 C   65.461567   50.374960   12.644126
 C   63.007405   49.532205   11.274802
 C   64.119679   50.343831   13.368454
 C   65.493607   49.331215   11.533179
 N   64.377562   48.600995    9.452138
 O   63.975862   46.718870   10.652943
 C   64.374947   46.491161    8.294748
 C   65.815236   45.957626    8.189237
 C   66.813423   47.064643    8.364706
 N   67.732963   49.144503    7.555177
 N   66.211486   48.080437    6.233181
 C   69.229074   50.421286    8.892053
 C   69.945852   50.575763   10.045444
 C   69.932401   49.590221   11.053694
 C   70.696930   49.817916   12.295330
 C   70.430492   50.970416   13.030038
 C   72.062421   50.347581   14.660889
 C   71.673247   48.925053   12.744993
 H   69.125951   47.704184   11.647868
 H   67.487549   46.414204   10.273556
 H   70.877509   52.130307   14.769549
 H   73.103540   48.523835   14.277266
 H   73.086883   47.459417   12.097651
 H   71.462466   46.832692   12.349596
 H   71.810262   47.802404   10.918463
 H   64.479782   50.554766   10.081779
 H   62.021447   50.538478   12.902165
 H   63.080392   51.577358   11.944286
 H   66.274181   50.183364   13.347717
 H   65.620396   51.367087   12.213299
 H   62.872080   48.538204   11.700716
 H   62.199312   49.711466   10.561901
 H   63.988748   49.368701   13.841239
 H   64.100044   51.104848   14.151459
 H   66.448309   49.376521   11.005662
 H   65.381177   48.332572   11.956431
 H   64.679042   48.941286    8.553458
 H   64.139479   47.130408    7.443883
 H   63.684302   45.647362    8.313832
 H   65.946442   45.455533    7.225556
 H   65.968951   45.218433    8.977306
 H   65.985322   47.176415    5.850332
 H   66.515232   48.762098    5.553898
 H   69.243053   51.169379    8.114743
 H   70.549311   51.459623   10.196500
 H   69.673162   51.653874   12.672426
 H   72.595585   50.544470   15.579402
