48 
3ru1_ligand_ani-2x.xyz
 C   68.390595   49.349512   11.367190
 C   67.652992   49.108082   10.178902
 C   67.702648   50.053388    9.131751
 C   66.242220   48.835010    7.829529
 C   66.831648   47.968731    9.973309
 C   63.712990   46.969885    8.528779
 C   62.181059   49.392213   11.054832
 C   65.285425   50.615492   13.084118
 C   65.676331   51.803176   12.200878
 C   64.444960   52.516095   11.640036
 C   64.377430   49.644729   12.323112
 C   63.556100   51.532314   10.874135
 C   63.137486   50.358271   11.768342
 N   62.738607   48.774755    9.865924
 C   63.218437   47.498371    9.864553
 O   63.255175   46.807045   10.872243
 C   65.209778   46.620012    8.591371
 C   66.113760   47.805125    8.817745
 C   69.169036   50.477126   11.496614
 C   69.228217   51.408446   10.440025
 C   68.512285   51.203128    9.286313
 N   66.984883   49.903227    7.975739
 N   65.506595   48.737721    6.649396
 H   68.319894   48.630033   12.179819
 H   66.754782   47.230889   10.771345
 H   63.520367   47.689335    7.729596
 H   63.146620   46.057058    8.310103
 H   61.265294   49.924188   10.771521
 H   61.902535   48.576849   11.726075
 H   64.762853   50.980484   13.979996
 H   66.185535   50.094716   13.433468
 H   66.278777   51.433793   11.358611
 H   66.309832   52.504493   12.756545
 H   64.748577   53.343064   10.987333
 H   63.868933   52.960702   12.464933
 H   64.072642   48.804443   12.960710
 H   64.946048   49.208737   11.491679
 H   64.116054   51.147916   10.007167
 H   62.667158   52.040333   10.475957
 H   62.579767   50.773690   12.623055
 H   62.851032   49.341028    9.038912
 H   65.488178   46.091762    7.670265
 H   65.358965   45.907587    9.408356
 H   69.730773   50.656222   12.409511
 H   69.841686   52.300399   10.543510
 H   68.529732   51.912027    8.464024
 H   65.441509   47.802107    6.270260
 H   65.834001   49.407190    5.963915
