70 
3rvi_ligand_aiqm1.xyz
 C   -3.390117   -3.353409    0.647953
 C   -4.645950   -3.100525    1.231322
 C   -5.770672   -3.735172    0.697415
 C   -2.124182   -2.737913    1.135248
 C   -1.020270   -3.585590    1.438953
 C   -1.953578   -1.374867    1.250463
 C    0.749998    1.070870    2.068332
 C   -4.808692   -2.191757    2.423033
 C    1.041228    3.253124    0.799594
 C    2.165965    2.661045   -0.032010
 C    2.457148    0.145446   -2.360519
 C    2.226876   -2.120062   -1.265053
 C    0.860318   -1.563455   -3.296831
 C    2.495486   -0.630256   -1.041798
 C    0.887489   -2.322203   -1.972078
 C    1.115106   -0.076401   -3.061754
 C    2.783264    1.633242   -2.176861
 N    1.854526    2.333772   -1.300505
 O    3.287186    2.515480    0.442759
 C    1.248234    4.763139    0.949774
 C    1.235636    5.525740   -0.369603
 C    1.343073    7.031758   -0.160408
 C    0.987674    2.559534    2.169248
 C    1.793936    0.104782    2.308398
 N    1.613192   -1.193865    2.252634
 N    3.058168    0.549286    2.659324
 C   -0.480129    0.576299    1.734678
 C   -0.709518   -0.821856    1.638487
 C    0.383647   -1.670467    1.927406
 C    0.187373   -3.071252    1.835207
 C   -3.305765   -4.235505   -0.435389
 C   -4.436022   -4.851040   -0.961744
 C   -5.678644   -4.597187   -0.390870
 H   -6.737616   -3.552643    1.153130
 H   -1.150023   -4.658133    1.354620
 H   -2.774660   -0.698875    1.026933
 H   -5.736256   -2.420734    2.949488
 H   -4.852632   -1.141014    2.124064
 H   -3.978093   -2.294048    3.119501
 H    0.090858    3.078864    0.279206
 H    3.241510   -0.254107   -3.013341
 H    2.236566   -2.639404   -0.305365
 H    3.029745   -2.549453   -1.876881
 H   -0.094307   -1.706858   -3.809194
 H    1.639571   -1.961396   -3.956817
 H    3.464620   -0.486314   -0.550711
 H    1.736824   -0.236949   -0.356852
 H    0.086821   -1.945686   -1.324814
 H    0.693720   -3.385417   -2.134501
 H    0.308103    0.322422   -2.433930
 H    1.085489    0.475067   -4.007860
 H    2.788861    2.133374   -3.151631
 H    3.766456    1.755478   -1.726900
 H    0.893361    2.413846   -1.586915
 H    0.462716    5.159429    1.601107
 H    2.199655    4.930755    1.462719
 H    2.059269    5.184506   -1.001984
 H    0.311160    5.294706   -0.909269
 H    0.513669    7.403349    0.445401
 H    1.329823    7.564885   -1.110895
 H    2.271063    7.284793    0.354052
 H    0.172629    3.010466    2.742703
 H    1.909769    2.772074    2.705188
 H    3.383489    1.344322    2.123763
 H    3.723865   -0.207126    2.678019
 H   -1.304089    1.259115    1.536330
 H    1.023639   -3.719063    2.065647
 H   -2.332097   -4.428235   -0.871372
 H   -4.345463   -5.523122   -1.804795
 H   -6.569396   -5.069906   -0.783451
