70 
3rvi_ligand_dft.xyz
 C    4.475089   -0.558222   -0.328833
 C    5.067532   -1.754999   -0.772143
 C    6.232748   -1.677676   -1.539343
 C    3.232322   -0.538498    0.490292
 C    3.221552    0.134969    1.740558
 C    2.063780   -1.119615    0.047322
 C   -1.494852   -1.457391    1.122932
 C    4.499148   -3.111683   -0.428832
 C   -3.464059   -1.376439   -0.508370
 C   -3.596795    0.115106   -0.222572
 C   -1.696590    2.946344   -0.653265
 C    0.139613    2.997509    1.093455
 C    0.716370    3.308873   -1.345888
 C   -1.204649    2.391721    0.686736
 C    1.193072    2.771053    0.006445
 C   -0.637517    2.706825   -1.738556
 C   -3.074370    2.390763   -1.036509
 N   -3.104963    0.944118   -1.172813
 O   -4.142493    0.522425    0.801387
 C   -4.847772   -1.975164   -0.798958
 C   -5.518969   -1.416310   -2.054055
 C   -6.864457   -2.081536   -2.336891
 C   -2.798614   -2.084510    0.687399
 C   -1.396945   -0.664829    2.326776
 N   -0.262154   -0.169234    2.775090
 N   -2.530243   -0.433273    3.077260
 C   -0.357317   -1.609860    0.384249
 C    0.872574   -1.037086    0.801897
 C    0.867285   -0.347610    2.039382
 C    2.080866    0.221751    2.497249
 C    5.071837    0.664915   -0.655064
 C    6.229683    0.723095   -1.420402
 C    6.812105   -0.457760   -1.868458
 H    6.700393   -2.599667   -1.876839
 H    4.144547    0.582975    2.098291
 H    2.041444   -1.629686   -0.913003
 H    5.281206   -3.875951   -0.464542
 H    3.717285   -3.413073   -1.136009
 H    4.051759   -3.122455    0.568775
 H   -2.824839   -1.520143   -1.391045
 H   -1.829536    4.034681   -0.550710
 H    0.468127    2.556439    2.039930
 H    0.017186    4.077153    1.264051
 H    1.459896    3.098585   -2.123526
 H    0.616535    4.402300   -1.289008
 H   -1.958408    2.551171    1.466433
 H   -1.083128    1.306365    0.587824
 H    1.390595    1.694735   -0.084212
 H    2.141811    3.242558    0.288990
 H   -0.507848    1.622960   -1.881859
 H   -0.975515    3.121682   -2.697807
 H   -3.409131    2.832972   -1.982779
 H   -3.808364    2.641603   -0.267326
 H   -2.628026    0.530816   -1.958576
 H   -4.740082   -3.063819   -0.896410
 H   -5.488598   -1.794669    0.073185
 H   -5.662554   -0.334517   -1.942592
 H   -4.851474   -1.554053   -2.916047
 H   -6.745993   -3.160739   -2.486918
 H   -7.332098   -1.666869   -3.235466
 H   -7.556971   -1.935292   -1.500470
 H   -2.619556   -3.127325    0.400363
 H   -3.502137   -2.110973    1.523950
 H   -3.354497   -0.200363    2.527546
 H   -2.350047    0.238585    3.812374
 H   -0.382335   -2.192003   -0.536476
 H    2.070768    0.738121    3.451797
 H    4.602501    1.582564   -0.309407
 H    6.672995    1.683781   -1.664861
 H    7.719540   -0.431552   -2.464793
