52 
3rwq_ligand_xtb.xyz
 C   31.366917  -26.444588  -13.416358
 N   39.387379  -26.913545  -10.102086
 O   34.940170  -30.154618  -11.643742
 C   32.378517  -28.325185  -12.580397
 N   31.271256  -27.686473  -12.979237
 C   35.674949  -26.740845  -12.669734
 N   32.450560  -25.700084  -13.529500
 C   34.998426  -27.900586  -12.333173
 N   34.821144  -25.807330  -13.142398
 C   33.617266  -27.644362  -12.642343
 N   32.273219  -29.579143  -12.135491
 C   33.557500  -26.332054  -13.133653
 N   39.069934  -30.303130  -11.388534
 C   35.142260  -24.476341  -13.611636
 N   37.588240  -28.003620  -10.981841
 C   35.822667  -23.670203  -12.507466
 N   41.284071  -28.666255  -13.957737
 C   35.572973  -29.114861  -11.806691
 C   37.029917  -29.102499  -11.487177
 C   37.782536  -30.252756  -11.704638
 C   39.622608  -29.231268  -10.872006
 C   38.886832  -28.044456  -10.674925
 C   36.004454  -24.551157  -14.871034
 C   40.784585  -26.738385  -12.633372
 C   39.563940  -26.612934  -13.286177
 C   41.608874  -27.787782  -13.029589
 C   41.149502  -25.841859  -11.489191
 C   39.209871  -27.535922  -14.255013
 C   40.771479  -26.519870  -10.152410
 C   40.105908  -28.554191  -14.544659
 H   30.438317  -25.980834  -13.723061
 H   38.715002  -26.158047  -10.080621
 H   36.725112  -26.552519  -12.585953
 H   31.372556  -30.022561  -12.138053
 H   33.123654  -30.073188  -11.877472
 H   34.176516  -24.021547  -13.857568
 H   35.205876  -23.662013  -11.612132
 H   36.791238  -24.097406  -12.257291
 H   35.971882  -22.645389  -12.836299
 H   37.344889  -31.140900  -12.133678
 H   40.664385  -29.320873  -10.601926
 H   36.968014  -25.008145  -14.655684
 H   35.503199  -25.141118  -15.634587
 H   36.175825  -23.552361  -15.262975
 H   38.902512  -25.794461  -13.031799
 H   42.581980  -27.926819  -12.574793
 H   40.615833  -24.892376  -11.573555
 H   42.221194  -25.639627  -11.484808
 H   38.262083  -27.473576  -14.768072
 H   41.394419  -27.402208  -10.002956
 H   40.957177  -25.825542   -9.328525
 H   39.876381  -29.309888  -15.283183
