21 
3rxb_ligand_ani-2x.xyz
 C   -1.543881  -16.841790   14.134269
 O   -2.166047  -17.250700   15.078740
 C   -0.658988  -15.605765   14.145244
 C   -0.723227  -14.807390   15.443566
 C   -2.065695  -14.096055   15.653194
 N   -2.117406  -13.267084   16.845971
 C   -2.230649  -13.874334   18.083322
 N   -2.449922  -15.130742   18.181772
 N   -2.066885  -12.961083   19.131970
 O   -1.590891  -17.509131   12.958711
 H   -0.936015  -14.973024   13.288454
 H    0.372661  -15.937075   13.960838
 H    0.081722  -14.060855   15.437024
 H   -0.546627  -15.477935   16.290426
 H   -2.866153  -14.833685   15.727101
 H   -2.287159  -13.448862   14.794684
 H   -1.499401  -12.466672   16.838498
 H   -2.523441  -15.415432   19.155596
 H   -2.357271  -13.327224   20.028032
 H   -2.492445  -12.060027   18.951182
 H   -1.042880  -17.064732   12.297106
