17 
3rxe_ligand_xtb.xyz
 C   -1.823730  -14.308856   16.838745
 C   -1.941854  -15.695668   16.815906
 C   -1.607645  -16.407157   15.679649
 C   -1.157616  -15.742106   14.550368
 C   -1.053547  -14.361528   14.560227
 C   -1.382835  -13.645782   15.697543
 C   -2.188263  -13.581062   18.072409
 N   -3.065053  -14.088428   18.834254
 N   -1.565901  -12.371944   18.269194
 H   -2.302869  -16.191927   17.702502
 H   -1.698360  -17.483457   15.671725
 H   -0.895151  -16.297153   13.661596
 H   -0.716854  -13.838607   13.676631
 H   -1.322507  -12.566811   15.682810
 H   -3.274246  -13.537708   19.663845
 H   -1.685860  -11.922992   19.163119
 H   -0.706907  -12.172514   17.786476
