13 
3rxf_ligand_xtb.xyz
 N   -1.636214  -15.891487   14.717028
 C   -0.996029  -14.733213   14.671292
 C   -0.958933  -13.828410   15.712750
 C   -1.634584  -14.138911   16.897855
 C   -2.311092  -15.362667   16.946688
 C   -2.275543  -16.184988   15.838946
 N   -1.633982  -13.287142   17.957817
 H   -0.483144  -14.521698   13.741544
 H   -0.420342  -12.896952   15.620692
 H   -2.848972  -15.652586   17.837052
 H   -2.789094  -17.138119   15.845885
 H   -1.144287  -12.413994   17.907441
 H   -2.123285  -13.524233   18.799910
