24 
3s0e_ligand_aiqm1.xyz
 C    2.481100  -10.609148  -10.573856
 O    3.151052  -13.083910   -8.001346
 C    2.722693  -11.323334  -11.758659
 O    2.430573  -10.587288   -8.136214
 C    2.630379  -11.204033   -9.328058
 C    3.096664  -12.658735  -11.662232
 C    3.018649  -12.551074   -9.251172
 C    3.245096  -13.265859  -10.413868
 C    2.599887  -10.647997  -13.100374
 C    3.879654  -10.035585  -13.610847
 C    5.051813  -10.043227  -12.971113
 C    2.046694   -9.225600   -8.186286
 H    2.185364   -9.572555  -10.649983
 H    3.419261  -14.000576   -8.098830
 H    3.289600  -13.231437  -12.558606
 H    3.544103  -14.307083  -10.348315
 H    1.837446   -9.864669  -13.054419
 H    2.246947  -11.370766  -13.841376
 H    3.810516   -9.554968  -14.583811
 H    5.169439  -10.510509  -11.999586
 H    5.922914   -9.578858  -13.414204
 H    2.805521   -8.616783   -8.684614
 H    1.091167   -9.101232   -8.702706
 H    1.944569   -8.904775   -7.154624
