24 
3s0e_ligand_ani-2x.xyz
 C    2.505429  -10.622940  -10.585690
 O    3.137798  -13.100585   -7.995323
 C    2.724250  -11.352262  -11.760563
 O    2.448352  -10.577303   -8.148743
 C    2.643091  -11.211231   -9.332970
 C    3.076524  -12.691648  -11.654566
 C    3.011910  -12.570467   -9.241924
 C    3.222111  -13.294746  -10.404886
 C    2.604336  -10.676705  -13.105880
 C    3.862900   -9.982235  -13.582893
 C    5.035706   -9.982329  -12.958835
 C    2.080564   -9.217290   -8.204178
 H    2.221860   -9.578181  -10.670340
 H    3.391068  -14.028654   -8.083349
 H    3.243542  -13.278348  -12.555242
 H    3.501384  -14.345888  -10.338687
 H    1.792065   -9.937254  -13.077708
 H    2.308127  -11.415214  -13.863051
 H    3.772968   -9.444567  -14.528500
 H    5.197534  -10.502001  -12.017104
 H    5.886626   -9.453453  -13.381209
 H    2.854193   -8.613085   -8.695553
 H    1.126287   -9.081364   -8.729339
 H    1.972473   -8.892249   -7.168569
