46 
3s2p_ligand_xtb.xyz
 C    3.010694    1.111075    0.911150
 N    3.286245    0.198227   -0.178216
 O   -0.614589   -2.934448   -2.567035
 C    0.283125   -2.134524   -1.963859
 O    5.478938   -0.296343    2.158687
 C    1.626202   -2.296475   -2.302800
 O    4.704032    2.796781    0.432603
 C    2.613417   -1.537128   -1.720679
 C    2.293941   -0.577126   -0.751531
 C    0.954098   -0.397408   -0.428985
 C   -0.065761   -1.142751   -1.027073
 C    4.669384   -0.249948   -0.154486
 C    4.384481    1.701318    1.245215
 C    5.331172    0.500344    1.014116
 C   -3.811904    1.588442    0.976392
 C   -4.517645    1.137543    2.255465
 C   -1.466925   -0.884651   -0.686393
 N   -2.367316   -1.803646   -1.059948
 C   -3.648214   -1.592380   -0.764240
 C   -4.785802    2.326223    0.056611
 N   -4.130010   -0.542498   -0.106369
 C   -3.255642    0.389504    0.255376
 C   -1.900569    0.265450   -0.020017
 N   -4.538498   -2.511298   -1.202217
 H    2.578918    0.603590    1.788816
 H    2.323011    1.898060    0.590345
 H   -1.495095   -2.721416   -2.168219
 H    4.617580   -0.648007    2.412685
 H    1.871973   -3.046635   -3.037950
 H    4.580490    2.539675   -0.488981
 H    3.637877   -1.690017   -2.019276
 H    0.688284    0.326930    0.321578
 H    5.162816   -0.011065   -1.104063
 H    4.745588   -1.331873    0.008473
 H    4.451818    2.063135    2.273685
 H    6.339231    0.843286    0.770749
 H   -2.985084    2.258014    1.236741
 H   -4.942053    1.993915    2.774283
 H   -3.818210    0.637648    2.922566
 H   -5.314826    0.443053    2.004941
 H   -4.276784    2.671150   -0.841092
 H   -5.588705    1.655110   -0.236230
 H   -5.210244    3.186602    0.568813
 H   -1.221365    1.050082    0.264421
 H   -4.196672   -3.388469   -1.550751
 H   -5.480901   -2.446752   -0.863200
