50 
3s3i_ligand_ani-2x.xyz
 C    6.735497   29.214335   31.132012
 C    5.495795   29.799959   31.388952
 C    4.500416   29.716909   30.394695
 C    4.792718   29.087879   29.183915
 C    6.020270   28.477230   28.956036
 C    7.003466   28.553902   29.940920
 C    3.135900   30.292102   30.586244
 C    2.623057   31.157126   29.657441
 C    1.316580   31.692369   29.829309
 N    0.560226   31.304327   30.929758
 C    1.061948   30.411650   31.854023
 C    2.316849   29.914392   31.703510
 N    0.628787   32.537090   29.085030
 N   -0.573696   32.713768   29.686387
 C   -0.629882   31.991336   30.777770
 C   -1.814095   31.932580   31.707745
 C    5.281695   30.521594   32.693441
 C    6.217589   27.797251   27.635701
 N    7.247571   26.897378   27.563899
 C    7.389956   26.041272   26.421016
 C    7.718601   26.671462   25.098748
 C    8.762728   25.885884   25.832231
 O    5.497527   28.030453   26.679432
 C   -2.900275   32.859394   31.146392
 C   -1.417034   32.422818   33.111495
 C   -2.369455   30.498890   31.777748
 H    7.513456   29.279389   31.890849
 H    4.043405   29.054205   28.396408
 H    7.995728   28.136753   29.780236
 H    3.185686   31.464351   28.788244
 H    0.419193   30.147926   32.678969
 H    2.694151   29.205556   32.431429
 H    4.704989   29.916145   33.401322
 H    6.238074   30.752874   33.170486
 H    4.730773   31.455437   32.545450
 H    7.668150   26.574661   28.422497
 H    6.732295   25.173765   26.394695
 H    7.811087   27.752376   25.106531
 H    7.264725   26.253791   24.204506
 H    9.048200   24.907930   25.455091
 H    9.569424   26.447969   26.293800
 H   -2.536934   33.888424   31.078658
 H   -3.202441   32.542580   30.144517
 H   -3.779943   32.841510   31.799107
 H   -0.651790   31.790148   33.569497
 H   -1.029320   33.445966   33.063882
 H   -2.294204   32.416234   33.767763
 H   -2.663799   30.153270   30.781046
 H   -1.639261   29.791801   32.180915
 H   -3.252385   30.475189   32.425851
