31 
3s68_ligand_dft.xyz
 O   -0.947733   -2.789057   -0.649166
 C   -0.856553   -1.623099   -0.306664
 C    0.503993   -1.020655   -0.107243
 C    1.562777   -1.895070    0.195582
 C    2.849702   -1.423638    0.338699
 O    3.859585   -2.261863    0.651842
 C    0.757591    0.325908   -0.302147
 C    2.066250    0.801874   -0.174723
 N    2.307956    2.213253   -0.389664
 O    1.373078    2.935808   -0.669742
 O    3.470995    2.630360   -0.274796
 C    3.127611   -0.051785    0.152481
 O    4.409158    0.301758    0.308317
 C   -2.080893   -0.794090   -0.096182
 C   -3.231752   -1.130274   -0.817159
 C   -4.407474   -0.420426   -0.633475
 C   -4.478743    0.628882    0.290141
 C   -5.755684    1.408916    0.466853
 C   -3.336077    0.939971    1.028422
 C   -2.147715    0.244005    0.836680
 H    1.364767   -2.954672    0.314068
 H    4.678549   -1.745898    0.693056
 H   -0.023289    1.024046   -0.574869
 H    4.465652    1.268192    0.141089
 H   -3.184916   -1.956584   -1.519079
 H   -5.290527   -0.685499   -1.209418
 H   -5.873189    2.145818   -0.336471
 H   -6.630042    0.751151    0.437827
 H   -5.766714    1.950114    1.417234
 H   -3.375383    1.736462    1.766732
 H   -1.279456    0.494941    1.438241
