31 
3s68_ligand_ani-2x.xyz
 O  -13.281482   35.540346   60.003076
 C  -13.512583   36.318997   60.910888
 C  -12.379703   36.841990   61.747217
 C  -11.255019   36.012155   61.874620
 C  -10.163642   36.418927   62.614155
 O   -9.086209   35.612333   62.762686
 C  -12.364274   38.106314   62.323234
 C  -11.247473   38.519215   63.052042
 N  -11.270247   39.843535   63.647900
 O  -12.247246   40.540974   63.478356
 O  -10.287595   40.204700   64.305137
 C  -10.140496   37.688191   63.223530
 O   -9.015399   37.963858   63.916406
 C  -14.923788   36.746411   61.180049
 C  -15.823362   36.695826   60.111800
 C  -17.148475   37.059343   60.287136
 C  -17.623467   37.459459   61.541013
 C  -19.066377   37.851534   61.726451
 C  -16.728653   37.476553   62.610850
 C  -15.394659   37.124013   62.438039
 H  -11.245816   35.043608   61.386070
 H   -8.449245   36.096135   63.310597
 H  -13.190440   38.797674   62.225028
 H   -9.102576   38.864101   64.288344
 H  -15.457967   36.363309   59.144514
 H  -17.833652   37.027517   59.441791
 H  -19.330752   38.704634   61.091048
 H  -19.738369   37.027360   61.460634
 H  -19.273989   38.130313   62.763362
 H  -17.075955   37.775844   63.596825
 H  -14.715991   37.144830   63.287801
