24 
3s9i_ligand_ani-2x.xyz
 O   -3.184922   -2.031722   -0.124810
 C   -2.449771   -0.954686    0.428864
 C   -3.172814    0.345148    0.089929
 O   -4.068990    0.689371    1.029608
 O   -3.014547    0.974461   -0.927700
 C   -1.069522   -0.969382   -0.193208
 C   -0.168029    0.074789    0.443818
 C    1.236064    0.256579   -0.041119
 C    2.022924    1.232494    0.575597
 C    3.332498    1.439272    0.160254
 C    3.867896    0.673113   -0.873842
 C    3.088625   -0.301422   -1.491150
 C    1.777551   -0.508595   -1.075703
 O   -0.596464    0.765481    1.351084
 H   -4.028063   -2.075329    0.344145
 H   -2.367641   -1.032768    1.518651
 H   -4.498311    1.499322    0.707004
 H   -1.155123   -0.786320   -1.271383
 H   -0.642713   -1.972309   -0.073466
 H    1.589724    1.818289    1.381033
 H    3.938614    2.200730    0.644682
 H    4.892631    0.836782   -1.197017
 H    3.499641   -0.902416   -2.297953
 H    1.170241   -1.270983   -1.559019
