24 
3s9i_ligand_xtb.xyz
 O   -3.253925   -1.931034   -0.020588
 C   -2.425978   -0.906507    0.471688
 C   -2.952038    0.480480    0.115901
 O   -4.279035    0.559814    0.293033
 O   -2.287639    1.402935   -0.264155
 C   -1.009840   -1.074771   -0.072395
 C   -0.033926   -0.236521    0.735070
 C    1.252576    0.098348    0.081928
 C    1.975485    1.178871    0.587966
 C    3.180231    1.546126    0.021179
 C    3.686377    0.827778   -1.050052
 C    2.983526   -0.257335   -1.549762
 C    1.770681   -0.620437   -0.994253
 O   -0.293847    0.132176    1.858568
 H   -4.167775   -1.720919    0.205135
 H   -2.382208   -0.939021    1.576185
 H   -4.595504    1.452373    0.082461
 H   -0.979602   -0.789606   -1.123219
 H   -0.735140   -2.128110    0.015313
 H    1.563931    1.722753    1.424647
 H    3.727432    2.390039    0.414130
 H    4.629413    1.110131   -1.494474
 H    3.383802   -0.822291   -2.378802
 H    1.242504   -1.475370   -1.387205
