25 
3sad_ligand_xtb.xyz
 C   32.717472   76.533214   60.489204
 C   33.333118   75.465300   61.348538
 C   34.636303   75.562169   61.854461
 C   35.523012   76.689379   61.514792
 O   35.641234   77.051869   60.236466
 C   36.224480   77.335189   62.485739
 C   37.125031   78.420602   62.251819
 C   37.827431   78.978762   63.513632
 O   38.636257   79.973473   63.184209
 O   37.657737   78.560638   64.625850
 O   37.417931   78.967830   61.195440
 C   35.127717   74.564436   62.697575
 C   34.354883   73.467338   63.019632
 C   33.070528   73.360593   62.510676
 C   32.569590   74.356069   61.693283
 H   33.169623   77.506882   60.662594
 H   32.811658   76.284799   59.430015
 H   31.654024   76.609365   60.706168
 H   35.107802   76.488040   59.660816
 H   36.104125   77.040193   63.515263
 H   38.557690   80.077999   62.203252
 H   36.133352   74.651899   63.078813
 H   34.751022   72.699295   63.665616
 H   32.457096   72.507564   62.757984
 H   31.560882   74.280203   61.313763
