46 
3sgt_ligand_aiqm1.xyz
 C  -11.849771   -4.223483    1.451366
 C  -14.541106   -3.607147    0.473632
 O  -10.295721    7.157371    7.706674
 O  -12.955125    4.101166    6.049361
 O  -11.079390    5.101998    7.542589
 C  -13.992253    8.933900    7.293575
 C  -14.937516    8.365293    6.447389
 C  -12.809382    8.255265    7.551654
 C  -14.675778    7.135932    5.854789
 C  -11.332174   -1.761605    1.317173
 C  -13.509859    2.702181    3.577101
 C  -13.471803    4.374303    1.841529
 C  -11.671841   -0.441295    1.041657
 C  -13.426936    1.707802    2.604082
 C  -13.387979    3.385226    0.872802
 C  -13.878873   -1.183925    0.403871
 N  -13.630108    5.110313    4.128203
 O  -13.318180    1.125093    0.238496
 C  -11.205364    6.418633    7.420633
 C  -13.316713    5.107788    5.441255
 C  -12.242240   -2.805637    1.141491
 C  -13.533826   -2.509621    0.672245
 C  -13.526771    4.043955    3.197744
 C  -13.365680    2.047066    1.253857
 C  -12.952920   -0.164047    0.579494
 C  -12.545891    6.996507    6.998766
 C  -13.491439    6.437668    6.117971
 H  -11.940723   -4.861533    0.569615
 H  -10.819143   -4.272915    1.802815
 H  -12.494172   -4.654740    2.220766
 H  -14.735346   -4.137669    1.408367
 H  -15.485237   -3.207402    0.103885
 H  -14.179256   -4.348976   -0.241225
 H  -11.851070    4.622624    7.171566
 H  -14.172719    9.898845    7.748649
 H  -15.871010    8.871962    6.241729
 H  -12.052963    8.686250    8.192812
 H  -15.424026    6.700076    5.201119
 H  -10.337679   -1.988796    1.682505
 H  -13.545361    2.434229    4.621635
 H  -13.487892    5.414220    1.532683
 H  -10.968822    0.368526    1.187506
 H  -13.408285    0.667469    2.897231
 H  -13.346343    3.637289   -0.176495
 H  -14.870085   -0.929938    0.043535
 H  -13.817830    6.013582    3.728203
