53 
3sh0_ligand_aiqm1.xyz
 C  -13.627384    7.256394    7.005406
 O  -13.736361    9.117600    8.460328
 C  -14.399100    8.134168    7.770757
 O  -13.532028    5.505345    5.465417
 C  -15.784617    8.029388    7.841662
 O  -11.425596    6.327451    6.979322
 C  -16.419186    7.035531    7.113051
 O  -11.562776    8.534415    6.975836
 C  -15.698301    6.159739    6.308497
 C  -14.304041    6.272407    6.254090
 C  -14.138799    4.443127    4.736434
 C  -13.017304    3.714088    4.033866
 C  -13.519841    2.534383    3.213549
 C  -12.398589    1.794085    2.499955
 C  -12.884974    0.612256    1.674953
 C  -11.754023   -0.114365    0.958810
 C  -12.210571   -1.342205    0.171495
 C  -13.256366   -1.050907   -0.910148
 C  -12.841342    0.025412   -1.918769
 C  -11.516095   -0.249210   -2.628706
 C  -11.503017   -1.549487   -3.424898
 C  -10.191947   -1.755756   -4.173772
 C  -12.123574    7.303422    6.993056
 H  -14.368755    9.603623    8.993988
 H  -16.353749    8.716882    8.454485
 H  -17.496022    6.948020    7.165755
 H  -12.222791    9.203010    7.194038
 H  -16.212965    5.400922    5.741513
 H  -14.859970    4.845879    4.014859
 H  -14.672014    3.772271    5.418509
 H  -12.302602    3.373778    4.785421
 H  -12.489919    4.422004    3.389641
 H  -14.248872    2.886438    2.473924
 H  -14.055163    1.835386    3.866727
 H  -11.670361    1.444922    3.239391
 H  -11.862886    2.491553    1.847331
 H  -13.619629    0.959916    0.939806
 H  -13.413544   -0.094268    2.325180
 H  -11.005442   -0.422630    1.694754
 H  -11.247733    0.585777    0.284734
 H  -12.625633   -2.078572    0.868219
 H  -11.336403   -1.815028   -0.286377
 H  -14.196400   -0.746636   -0.437139
 H  -13.480528   -1.981814   -1.441455
 H  -12.780778    0.993898   -1.412222
 H  -13.632962    0.123021   -2.669548
 H  -10.702568   -0.267200   -1.894653
 H  -11.297093    0.582771   -3.304668
 H  -12.337380   -1.542466   -4.132214
 H  -11.679608   -2.392019   -2.750489
 H  -10.014399   -0.939992   -4.877799
 H   -9.350199   -1.782106   -3.478692
 H  -10.193298   -2.690121   -4.736007
