49 
3sm0_ligand_aiqm1.xyz
 N   19.642427   18.241943   16.268872
 N   13.901823   15.134245   17.630285
 C   16.421826   17.081025   19.692062
 C   15.122058   16.785445   18.989289
 C   15.066835   15.342279   18.484804
 C   12.646570   15.053786   18.374923
 C   11.493471   14.724566   17.447167
 C    9.147914   14.780039   16.976439
 C   16.575211   16.951048   21.078146
 C   17.969449   17.049498   23.142749
 C   18.958527   17.581346   20.957040
 C   18.803238   18.621246   15.150652
 C   19.084533   18.020385   17.494377
 N   17.761051   17.683581   17.641481
 C   17.557710   17.457887   18.995040
 C   10.129731   14.653444   18.138690
 C    9.770638   15.884721   16.107803
 C   11.300472   15.761738   16.319986
 N   15.452668   16.567710   21.823580
 C   15.616762   16.446730   23.087346
 N   16.790812   16.659700   23.763991
 O   18.985171   17.233125   23.786492
 C   17.832312   17.200692   21.691169
 C   18.814457   17.711208   19.588851
 N   19.748942   18.066753   18.624505
 H   14.018368   14.261133   17.131846
 H   14.293402   16.955540   19.672564
 H   14.984138   17.458805   18.136280
 H   15.086717   14.660975   19.349382
 H   15.960769   15.133880   17.887702
 H   12.702007   14.302995   19.184768
 H   12.460650   16.019957   18.852373
 H   11.693164   13.744171   16.990387
 H    9.119551   13.835538   16.424217
 H    8.129687   15.012183   17.289477
 H   19.895227   17.758203   21.462972
 H   19.444393   18.939934   14.333021
 H   18.221129   17.766118   14.805295
 H   10.001587   13.739892   18.722155
 H   10.016504   15.506848   18.816971
 H    9.486406   15.793956   15.059822
 H    9.422826   16.860519   16.452179
 H   11.825802   15.452249   15.416942
 H   11.728591   16.720019   16.619511
 H   14.781216   16.152237   23.709519
 H   16.828302   16.540321   24.763798
 H   17.101145   17.528279   16.902532
 H   20.536897   18.700272   16.342503
 H   18.112917   19.433836   15.400044
