76 
3sm1_ligand_xtb.xyz
 C    5.661901    1.338514   -0.358571
 C    7.082678    0.846845   -0.060805
 C    7.142024    0.222542    1.330850
 C    8.081665    1.993533   -0.180655
 C    4.690543    0.178400   -0.476013
 O    4.963043   -0.869178   -1.026886
 N    3.488015    0.398766    0.106408
 C    2.386366   -0.518731   -0.058141
 C    1.173429    0.272845   -0.538738
 O    1.122522    1.487184   -0.432606
 C    2.055003   -1.274169    1.253561
 C    1.473837   -0.335503    2.307773
 C    3.306784   -1.974431    1.774754
 N    0.209116   -0.472125   -1.101383
 C   -1.087988    0.056533   -1.456854
 C   -2.005540   -0.012110   -0.230192
 O   -1.619122   -0.516293    0.815349
 C   -1.673027   -0.677745   -2.676567
 C   -1.853032   -2.171562   -2.401891
 C   -0.789300   -0.448132   -3.899826
 N   -3.217731    0.528968   -0.413404
 C   -4.247940    0.691245    0.611757
 C   -4.653237   -0.668299    1.192937
 C   -5.275141   -1.605925    0.150588
 C   -5.255376   -3.041458    0.671781
 C   -6.705598   -1.196197   -0.191724
 C   -3.830784    1.684059    1.721302
 O   -2.846056    1.183486    2.586814
 C   -3.421060    3.052939    1.121069
 C   -2.180363    2.961372    0.246811
 O   -2.226029    3.057150   -0.969104
 N   -1.042780    2.761431    0.925533
 H    5.654113    1.862272   -1.318277
 H    5.332440    2.035133    0.414210
 H    7.327438    0.076005   -0.797983
 H    6.460504   -0.622249    1.393741
 H    6.866373    0.952454    2.090586
 H    8.146981   -0.133066    1.545675
 H    9.090068    1.640047    0.020891
 H    7.845749    2.779852    0.534259
 H    8.062806    2.420953   -1.180701
 H    3.218007    1.333951    0.377572
 H    2.692680   -1.247858   -0.818785
 H    1.300002   -2.031817    1.016409
 H    0.507828    0.046177    1.987463
 H    2.144005    0.500702    2.491061
 H    1.330800   -0.872385    3.242329
 H    4.032536   -1.241025    2.117314
 H    3.769462   -2.569994    0.991722
 H    3.054452   -2.625085    2.608548
 H    0.267337   -1.474100   -1.007946
 H   -0.951880    1.120137   -1.695196
 H   -2.658149   -0.244257   -2.876602
 H   -0.895779   -2.688353   -2.395131
 H   -2.345389   -2.335420   -1.445485
 H   -2.463204   -2.620926   -3.181701
 H   -1.201948   -0.963200   -4.763734
 H    0.215919   -0.822446   -3.721761
 H   -0.724477    0.612689   -4.127641
 H   -3.339614    1.085969   -1.246329
 H   -5.107216    1.133550    0.099648
 H   -5.363141   -0.500493    2.004185
 H   -3.769795   -1.143868    1.618952
 H   -4.670610   -1.560702   -0.762360
 H   -5.688040   -3.720024   -0.059757
 H   -5.830162   -3.116930    1.592088
 H   -4.236707   -3.362504    0.877126
 H   -7.123855   -1.872504   -0.933569
 H   -7.331926   -1.234934    0.696905
 H   -6.745155   -0.187935   -0.596382
 H   -4.719120    1.862548    2.345829
 H   -2.321111    0.508416    2.116348
 H   -4.245804    3.446710    0.526781
 H   -3.221317    3.733106    1.949738
 H   -1.080848    2.555099    1.910740
 H   -0.191271    2.552347    0.412194
