76 
3sm1_ligand_dft.xyz
 C    5.824839    0.028048   -0.776873
 C    7.159702    0.039306   -0.022185
 C    7.058095    0.854524    1.268846
 C    8.276161    0.569496   -0.922932
 C    4.720800   -0.652114    0.016968
 O    4.918987   -1.657206    0.684887
 N    3.497809   -0.052469   -0.060520
 C    2.316179   -0.676954    0.484452
 C    1.203025   -0.551671   -0.553180
 O    1.281718    0.253529   -1.477875
 C    1.864665   -0.047992    1.833160
 C    1.312913    1.367193    1.649973
 C    3.013322   -0.073141    2.841952
 N    0.137489   -1.363868   -0.353770
 C   -1.133284   -1.148218   -1.009080
 C   -2.052071   -0.367796   -0.059075
 O   -1.761552   -0.214495    1.130071
 C   -1.770505   -2.470721   -1.490098
 C   -2.031649   -3.440197   -0.334041
 C   -0.906200   -3.114284   -2.574404
 N   -3.175368    0.112797   -0.629186
 C   -4.099928    1.058349    0.009071
 C   -4.693282    0.528570    1.321025
 C   -5.245015   -0.900754    1.254146
 C   -5.817562   -1.296295    2.617155
 C   -6.290472   -1.074274    0.150047
 C   -3.482041    2.463893    0.163776
 O   -2.419688    2.520918    1.096024
 C   -3.038342    3.074574   -1.184971
 C   -1.919291    2.307334   -1.877334
 O   -2.123900    1.596588   -2.861033
 N   -0.702230    2.442995   -1.307235
 H    5.937776   -0.527563   -1.717228
 H    5.535097    1.053109   -1.043731
 H    7.381192   -0.999810    0.246360
 H    6.301654    0.437468    1.941451
 H    6.792791    1.897697    1.052816
 H    8.014418    0.858056    1.802844
 H    9.241846    0.539219   -0.406940
 H    8.085589    1.611286   -1.210693
 H    8.366068   -0.021261   -1.841521
 H    3.323987    0.633261   -0.783834
 H    2.554816   -1.732070    0.658740
 H    1.050423   -0.674743    2.221420
 H    0.372069    1.357351    1.091452
 H    2.033926    2.003045    1.122605
 H    1.110777    1.825582    2.623009
 H    3.806717    0.615810    2.532758
 H    3.454807   -1.069779    2.929325
 H    2.655711    0.244001    3.827179
 H    0.091232   -1.827554    0.543274
 H   -0.939481   -0.513001   -1.881040
 H   -2.738052   -2.203504   -1.933094
 H   -1.091317   -3.808872    0.093380
 H   -2.613001   -2.977029    0.470966
 H   -2.586700   -4.313628   -0.689622
 H   -1.377936   -4.027694   -2.950922
 H    0.078876   -3.379584   -2.176267
 H   -0.757598   -2.432543   -3.418127
 H   -3.166988    0.148500   -1.642662
 H   -4.918673    1.167331   -0.710262
 H   -5.504722    1.214329    1.602269
 H   -3.945974    0.583323    2.116355
 H   -4.405768   -1.573398    1.035410
 H   -6.165579   -2.334943    2.611620
 H   -6.670819   -0.659570    2.882975
 H   -5.064654   -1.195917    3.406475
 H   -6.726610   -2.078373    0.181167
 H   -7.108274   -0.351854    0.269417
 H   -5.856648   -0.936115   -0.846315
 H   -4.287451    3.108701    0.543915
 H   -2.148647    1.615038    1.329726
 H   -3.887617    3.111971   -1.872996
 H   -2.713615    4.101208   -0.985721
 H   -0.648329    2.862880   -0.389407
 H    0.045934    1.817517   -1.596531
