82 
3sna_ligand_xtb.xyz
 C   -5.693667    0.129923   -1.496187
 O   -6.680417    0.760309   -1.165174
 C   -5.697763   -0.943921   -2.557500
 N   -4.475240    0.332092   -0.943505
 C   -4.282773    1.296296    0.113201
 C   -3.022099    2.145863   -0.056127
 O   -2.994810    3.319313    0.271353
 C   -4.181146    0.633979    1.508369
 C   -4.988910   -0.655317    1.595805
 O   -4.462263   -1.726436    1.823767
 N   -6.316889   -0.502837    1.448350
 N   -1.939515    1.487362   -0.500075
 C   -0.653935    2.141307   -0.609818
 C    0.331343    1.227743   -1.333952
 O    0.006711    0.126343   -1.760761
 C   -0.160482    2.632492    0.781775
 O   -0.343112    4.007794    0.929164
 N    1.538707    1.772656   -1.486484
 C    2.652005    1.258666   -2.261737
 C    2.819652   -0.262907   -2.225515
 O    3.166313   -0.866609   -3.223457
 C    3.955442    1.941703   -1.794792
 C    4.193458    1.787804   -0.317032
 C    4.920577    0.709516    0.173010
 C    3.687966    2.718966    0.583696
 C    5.116322    0.556621    1.535364
 C    3.873641    2.560686    1.945702
 C    4.585840    1.476294    2.426760
 N    2.614607   -0.852656   -1.040329
 C    2.703974   -2.292992   -0.916002
 C    1.608265   -2.828869    0.012535
 O    1.816729   -3.670876    0.864062
 C    4.099502   -2.741289   -0.460174
 O    5.114979   -2.195116   -1.259638
 C   -2.000665   -2.635583   -0.391161
 N    0.408310   -2.290875   -0.252256
 O   -2.222472   -1.465943   -1.150710
 C   -0.779685   -2.541580    0.537444
 C   -0.981234   -1.459445    1.605169
 C    1.403946   -0.815431    2.120995
 C    0.137727   -1.458857    2.645703
 O    1.403146    0.083185    1.289226
 N    2.545034   -1.258595    2.667762
 H   -5.369761   -1.887776   -2.127732
 H   -6.700929   -1.054761   -2.958088
 H   -5.015043   -0.674169   -3.359489
 H   -3.745442   -0.346537   -1.122723
 H   -5.146458    1.969630    0.077998
 H   -3.144240    0.376914    1.725852
 H   -4.531733    1.333205    2.267977
 H   -6.886265   -1.334197    1.423684
 H   -6.704924    0.327937    1.027691
 H   -1.975848    0.505845   -0.750894
 H   -0.774488    3.042687   -1.231404
 H   -0.704535    2.073263    1.554706
 H    0.902617    2.431095    0.922489
 H   -1.297802    4.179435    0.833299
 H    1.683923    2.689360   -1.088416
 H    2.497262    1.504212   -3.323323
 H    3.895017    3.002533   -2.050638
 H    4.780121    1.500593   -2.356601
 H    5.336891   -0.015880   -0.509612
 H    3.162822    3.594970    0.226799
 H    5.705470   -0.275476    1.896817
 H    3.465247    3.289386    2.629415
 H    4.737116    1.355954    3.489714
 H    2.347098   -0.307053   -0.224312
 H    2.530036   -2.700935   -1.923852
 H    4.130072   -3.839190   -0.469867
 H    4.292174   -2.402602    0.560721
 H    4.834463   -2.229691   -2.184425
 H   -1.880199   -3.495396   -1.061838
 H   -2.899113   -2.773148    0.215029
 H    0.380650   -1.487465   -0.873415
 H   -1.436484   -1.267706   -1.685396
 H   -0.639701   -3.512826    1.023360
 H   -0.998471   -0.481486    1.120372
 H   -1.942054   -1.641132    2.088245
 H   -0.175908   -0.873830    3.514526
 H    0.351575   -2.475482    2.975485
 H    2.569136   -2.086059    3.237031
 H    3.418532   -0.854760    2.356531
