76 
3snc_ligand_ani-2x.xyz
 C   -4.709366    2.147740    1.193035
 O   -4.189336    3.165647    0.757730
 C   -5.872628    2.146722    2.159970
 N   -4.247083    0.920282    0.833502
 C   -3.242114    0.802180   -0.189949
 C   -3.203918   -0.671136   -0.626320
 O   -3.893105   -1.524963   -0.089115
 C   -1.844194    1.293862    0.296318
 C   -1.128077    2.105865   -0.772339
 O   -1.026001    1.661730   -1.924524
 N   -0.662085    3.313798   -0.423042
 N   -2.346317   -0.946443   -1.647007
 C   -1.888707   -2.308869   -1.849150
 C   -0.629298   -2.561577   -0.992902
 O   -0.480350   -1.988129    0.085528
 C   -1.766474   -2.640580   -3.350414
 O   -0.475561   -2.504844   -3.911088
 N    0.276000   -3.456756   -1.460875
 C    1.561606   -3.631185   -0.790270
 C    2.505580   -2.479209   -1.196822
 O    3.460704   -2.662918   -1.949807
 C    2.167911   -4.978894   -1.199929
 O    2.233295   -5.046355   -2.611724
 C    1.357411   -6.162892   -0.700530
 N    2.197532   -1.247650   -0.707208
 C    2.670936   -0.059441   -1.408324
 C    2.300133    1.195445   -0.610625
 O    2.024232    2.250384   -1.168523
 C    2.144218    0.039169   -2.847087
 O    0.745108   -0.170722   -2.921116
 C    3.438959    2.667965    2.173533
 N    2.319573    1.039399    0.735644
 O    4.044771    1.666849    2.973063
 C    2.101206    2.125113    1.680919
 C    1.207038    1.613111    2.814425
 C    0.018005    3.774397    3.450041
 C    0.892160    2.620945    3.915355
 O   -0.701009    3.705064    2.458807
 N    0.054319    4.887335    4.222513
 H   -6.202168    3.174846    2.312639
 H   -6.707036    1.550287    1.774811
 H   -5.572483    1.718973    3.122757
 H   -4.709761    0.060407    1.102749
 H   -3.522354    1.418010   -1.052790
 H   -1.965149    1.885998    1.206878
 H   -1.216566    0.418787    0.525569
 H    0.048254    3.716876   -1.020757
 H   -0.687507    3.604630    0.550363
 H   -1.741099   -0.185079   -1.947176
 H   -2.681362   -2.935257   -1.424706
 H   -2.486213   -2.008975   -3.890446
 H   -2.057975   -3.684898   -3.513853
 H   -0.129424   -1.614932   -3.700950
 H    0.286004   -3.653486   -2.459317
 H    1.374365   -3.587577    0.287907
 H    3.180754   -5.035051   -0.773694
 H    2.874634   -4.358007   -2.856400
 H    1.817640   -7.092810   -1.043829
 H    0.329974   -6.118926   -1.072466
 H    1.332423   -6.174645    0.395189
 H    1.284469   -1.166271   -0.260215
 H    3.766344   -0.111251   -1.454827
 H    2.408204    1.020558   -3.250363
 H    2.629994   -0.730525   -3.451392
 H    0.295102    0.650550   -2.647331
 H    4.059252    2.917236    1.300189
 H    3.285923    3.596534    2.746138
 H    2.620139    0.146662    1.106214
 H    4.981871    1.872588    3.064753
 H    1.592370    2.915405    1.125427
 H    1.688970    0.741739    3.269411
 H    0.268212    1.273928    2.357788
 H    1.815896    3.002608    4.366934
 H    0.351112    2.113226    4.724829
 H   -0.579704    5.641038    4.005762
 H    0.551516    4.916163    5.096816
