76 
3snc_ligand_aiqm1.xyz
 C   -5.406192    2.074492    0.678268
 O   -4.989397    3.119751    0.202679
 C   -6.728518    1.977057    1.405381
 N   -4.713584    0.916646    0.578603
 C   -3.513953    0.815725   -0.217303
 C   -3.290901   -0.681206   -0.480723
 O   -3.922949   -1.531770    0.129607
 C   -2.320262    1.478181    0.491391
 C   -1.253364    1.974881   -0.454337
 O   -1.137892    1.539244   -1.606787
 N   -0.415858    2.895262    0.018207
 N   -2.392167   -0.952833   -1.447683
 C   -1.889184   -2.295100   -1.636091
 C   -0.555612   -2.473557   -0.890488
 O   -0.328807   -1.852780    0.149723
 C   -1.863320   -2.692083   -3.116995
 O   -0.697609   -2.316752   -3.829491
 N    0.313806   -3.374404   -1.402808
 C    1.654589   -3.532153   -0.853040
 C    2.544975   -2.379173   -1.361285
 O    3.455418   -2.558559   -2.159372
 C    2.248474   -4.883240   -1.260708
 O    2.237996   -5.017928   -2.669350
 C    1.471215   -6.048990   -0.688662
 N    2.230917   -1.166247   -0.847597
 C    2.665998    0.048494   -1.526590
 C    2.398658    1.281137   -0.658757
 O    2.287630    2.397923   -1.151100
 C    2.049521    0.181163   -2.925147
 O    0.644809   -0.033360   -2.922488
 C    3.712403    2.538372    2.012165
 N    2.316459    1.041826    0.664760
 O    4.358015    1.464078    2.693337
 C    2.291289    2.100588    1.667151
 C    1.500904    1.591381    2.872475
 C    0.611925    3.817232    3.732764
 C    1.415447    2.568056    4.035688
 O   -0.108304    3.937044    2.753528
 N    0.740680    4.813281    4.642952
 H   -7.525509    1.879178    0.667276
 H   -6.766103    1.120654    2.079175
 H   -6.895256    2.897256    1.959186
 H   -5.094874    0.038608    0.896395
 H   -3.660552    1.322283   -1.171275
 H   -2.696525    2.324447    1.065973
 H   -1.855593    0.782183    1.197931
 H    0.362826    3.155747   -0.565781
 H   -0.485767    3.258654    0.956399
 H   -1.837175   -0.166342   -1.773353
 H   -2.594472   -2.952600   -1.125489
 H   -2.756572   -2.269441   -3.584045
 H   -1.923279   -3.779089   -3.195819
 H   -0.454527   -1.407526   -3.617690
 H    0.214988   -3.637042   -2.376151
 H    1.581939   -3.464656    0.232669
 H    3.277162   -4.901190   -0.883792
 H    2.838269   -4.340674   -3.003096
 H    1.956128   -6.983239   -0.964370
 H    0.455955   -6.056143   -1.085379
 H    1.424054   -5.984702    0.399305
 H    1.330810   -1.122947   -0.378368
 H    3.747754   -0.008174   -1.661442
 H    2.306100    1.164953   -3.323881
 H    2.473380   -0.593109   -3.560051
 H    0.200536    0.738821   -2.549648
 H    4.231591    2.783859    1.082045
 H    3.687830    3.437554    2.637163
 H    2.527315    0.109016    0.983796
 H    5.289590    1.665967    2.780774
 H    1.799143    2.960677    1.219778
 H    1.975288    0.673590    3.223571
 H    0.493473    1.342008    2.532800
 H    2.412764    2.850765    4.384045
 H    0.925839    2.076821    4.881698
 H    0.156622    5.625702    4.548022
 H    1.253291    4.676254    5.494047
