76 
3snc_ligand_xtb.xyz
 C   -5.478738    1.997016    0.797031
 O   -5.137720    3.093290    0.401753
 C   -6.700438    1.757727    1.662487
 N   -4.797416    0.869613    0.513552
 C   -3.633826    0.809440   -0.336428
 C   -3.378636   -0.680696   -0.607839
 O   -3.973990   -1.545212    0.010917
 C   -2.416707    1.462226    0.350889
 C   -1.329053    1.914033   -0.600949
 O   -1.227480    1.498567   -1.756328
 N   -0.468786    2.789646   -0.097335
 N   -2.490899   -0.914096   -1.582327
 C   -1.904261   -2.220144   -1.774028
 C   -0.587667   -2.262599   -0.989908
 O   -0.383693   -1.471292   -0.074350
 C   -1.768340   -2.549076   -3.281408
 O   -0.478017   -2.415907   -3.806705
 N    0.284122   -3.213277   -1.339574
 C    1.593800   -3.347317   -0.730901
 C    2.525928   -2.271458   -1.326837
 O    3.451694   -2.532884   -2.070065
 C    2.133126   -4.759948   -1.036558
 O    2.114155   -4.986229   -2.422646
 C    1.289883   -5.833579   -0.359205
 N    2.193095   -1.032380   -0.922064
 C    2.686330    0.154713   -1.589954
 C    2.474282    1.370125   -0.683653
 O    2.197734    2.474940   -1.111753
 C    2.011182    0.331090   -2.973522
 O    0.650015    0.001724   -2.959255
 C    3.973523    2.412472    2.128403
 N    2.611694    1.089280    0.622008
 O    4.568510    1.257780    2.682025
 C    2.542249    2.063550    1.690529
 C    1.702470    1.465167    2.824750
 C    0.522691    3.575485    3.610373
 C    1.435758    2.422584    3.984149
 O   -0.186353    3.590182    2.625492
 N    0.540852    4.604279    4.482463
 H   -7.400931    1.110266    1.140265
 H   -6.410689    1.277904    2.594298
 H   -7.180649    2.707632    1.877570
 H   -5.097800   -0.039422    0.848589
 H   -3.830733    1.339775   -1.276768
 H   -2.769139    2.332846    0.906143
 H   -1.970160    0.756210    1.056387
 H    0.332601    3.065132   -0.653357
 H   -0.525347    3.111646    0.860032
 H   -1.969340   -0.104378   -1.926212
 H   -2.590114   -2.934033   -1.298330
 H   -2.479919   -1.908494   -3.819992
 H   -2.048292   -3.591408   -3.459296
 H   -0.144785   -1.512632   -3.654652
 H    0.189342   -3.693222   -2.229054
 H    1.497906   -3.188182    0.348672
 H    3.166439   -4.810653   -0.657234
 H    2.706618   -4.334160   -2.827170
 H    1.668155   -6.812444   -0.638092
 H    0.256840   -5.756563   -0.685955
 H    1.335221   -5.725128    0.720546
 H    1.293785   -0.938891   -0.445134
 H    3.764123    0.034427   -1.758911
 H    2.176774    1.359474   -3.311840
 H    2.479756   -0.362936   -3.676070
 H    0.121474    0.715404   -2.545369
 H    4.529131    2.752841    1.244648
 H    3.957026    3.233207    2.858045
 H    2.937218    0.172621    0.890921
 H    5.496681    1.434595    2.861274
 H    2.069806    2.962691    1.285899
 H    2.229932    0.589883    3.206368
 H    0.748730    1.143973    2.403364
 H    2.369469    2.811031    4.390577
 H    0.934392    1.868991    4.782890
 H   -0.082917    5.379819    4.327542
 H    1.078024    4.583144    5.330480
