41 
3snd_ligand_aiqm1.xyz
 N    0.938694   -0.020431    2.097085
 C    1.004097    0.039197    0.592335
 C   -0.031242   -1.005662    0.162433
 O   -0.069401   -2.063443    0.777903
 C    2.397436   -0.280240    0.063420
 C    3.503603    0.702204    0.465624
 C    4.816122    0.256113   -0.170940
 C    3.181594    2.139582    0.062590
 C   -2.114994   -1.422944   -2.729794
 N   -0.830066   -0.657834   -0.840056
 O   -2.147360   -0.044465   -3.089299
 C   -1.995885   -1.465046   -1.215483
 C   -3.271655   -0.962325   -0.529431
 C   -2.692012    0.523963    1.480189
 C   -3.164405   -0.833592    1.004205
 O   -1.581110    0.723755    1.987406
 N   -3.548445    1.538482    1.312866
 H    1.084241   -0.998685    2.355107
 H    1.626680    0.572049    2.550280
 H   -0.036960    0.249503    2.337509
 H    0.708371    1.036930    0.288833
 H    2.675841   -1.295292    0.358400
 H    2.326251   -0.281080   -1.025724
 H    3.635457    0.667008    1.555753
 H    4.750082    0.321373   -1.258364
 H    5.635716    0.892026    0.154976
 H    5.055803   -0.772503    0.095261
 H    4.021752    2.787829    0.296431
 H    2.303448    2.548027    0.572836
 H    3.007800    2.202428   -1.012896
 H   -1.249806   -1.916594   -3.175624
 H   -3.024828   -1.934409   -3.043093
 H   -0.740451    0.247882   -1.274603
 H   -2.335230    0.030533   -4.023354
 H   -1.789026   -2.484734   -0.896716
 H   -3.575914   -0.014849   -0.982016
 H   -4.057273   -1.682181   -0.751741
 H   -4.149444   -0.999532    1.440008
 H   -2.493695   -1.593897    1.399983
 H   -4.474039    1.389847    0.953167
 H   -3.299645    2.450908    1.654634
