41 
3sni_ligand_xtb.xyz
 C   17.555652  -11.165595  -34.942152
 N   19.503669   -7.346520  -34.970161
 O   20.337520  -10.683134  -38.765503
 C   18.230265   -9.832187  -34.951254
 N   20.260878  -10.874414  -32.361200
 C   17.647524   -8.723071  -35.550406
 N   20.770393  -11.793793  -34.296195
 C   18.321093   -7.512693  -35.536653
 N   20.527807  -11.238164  -36.545805
 C   20.061529   -8.390687  -34.388223
 N   22.178957  -14.096118  -34.943698
 C   19.482388   -9.655900  -34.354918
 C   20.159810  -10.754580  -33.667707
 C   20.940426  -12.011715  -32.100252
 C   21.286574  -12.627142  -33.297712
 C   20.987693  -12.077770  -35.624034
 C   21.705091  -13.254672  -35.911211
 C   21.928910  -13.537610  -37.267860
 C   21.463793  -12.672223  -38.224372
 C   20.767824  -11.520726  -37.814029
 C   19.655072   -9.522531  -38.331959
 C   21.988381  -13.800117  -33.696284
 C   22.535291  -14.735525  -32.669723
 C   21.207453  -12.426171  -30.698919
 H   16.510750  -11.075791  -35.229245
 H   18.053228  -11.832257  -35.647459
 H   17.617456  -11.616528  -33.952994
 H   16.676025   -8.801434  -36.015944
 H   17.895066   -6.630901  -35.996892
 H   21.023379   -8.217659  -33.924272
 H   22.471545  -14.433009  -37.525795
 H   21.615804  -12.839692  -39.277430
 H   18.712938   -9.787024  -37.847163
 H   20.261525   -8.953978  -37.623857
 H   19.466584   -8.935121  -39.227744
 H   23.021208  -15.566442  -33.172347
 H   23.257091  -14.222094  -32.037877
 H   21.735756  -15.111394  -32.034783
 H   20.778347  -11.682457  -30.033655
 H   20.759045  -13.395458  -30.485703
 H   22.277761  -12.495905  -30.510707
