18 
3srg_ligand_xtb.xyz
 O   -5.319349  -23.482915   29.339800
 N   -6.864044  -21.958385   28.732351
 C   -7.729178  -20.928550   28.972049
 C   -8.502879  -20.377409   27.947530
 C   -9.365819  -19.340073   28.220669
 C   -9.476421  -18.831565   29.513696
 C   -8.720215  -19.365725   30.530883
 C   -7.835301  -20.420502   30.281909
 C   -7.022925  -21.018254   31.296565
 C   -6.182989  -22.031895   31.014290
 C   -6.054702  -22.572649   29.670792
 H   -6.791746  -22.318586   27.787711
 H   -8.415734  -20.772589   26.945785
 H   -9.962139  -18.916839   27.426452
 H  -10.157074  -18.018059   29.712500
 H   -8.799049  -18.978139   31.535905
 H   -7.103006  -20.630793   32.302850
 H   -5.564629  -22.492173   31.768762
