18 
3srg_ligand_ani-2x.xyz
 O   -5.303106  -23.499857   29.345513
 N   -6.860103  -21.964832   28.727505
 C   -7.735825  -20.921568   28.971104
 C   -8.508968  -20.372384   27.940117
 C   -9.375619  -19.331216   28.212454
 C   -9.488335  -18.818300   29.515081
 C   -8.729245  -19.356488   30.530932
 C   -7.839891  -20.416689   30.278673
 C   -7.014712  -21.026763   31.297287
 C   -6.172614  -22.039845   31.024646
 C   -6.044420  -22.585733   29.666261
 H   -6.777422  -22.334595   27.788768
 H   -8.421359  -20.770275   26.930555
 H   -9.974301  -18.906774   27.411043
 H  -10.173945  -17.998809   29.716654
 H   -8.806332  -18.968997   31.544980
 H   -7.089438  -20.641364   32.313886
 H   -5.551566  -22.500612   31.785040
