18 
3srg_ligand_aiqm1.xyz
 O   -5.308685  -23.491119   29.350673
 N   -6.861630  -21.962711   28.728069
 C   -7.735500  -20.922023   28.971000
 C   -8.508448  -20.374203   27.939069
 C   -9.374682  -19.332403   28.213452
 C   -9.487210  -18.819778   29.513331
 C   -8.722953  -19.362508   30.532206
 C   -7.837975  -20.418545   30.277838
 C   -7.017504  -21.023168   31.299011
 C   -6.173825  -22.039856   31.022718
 C   -6.052549  -22.576584   29.666198
 H   -6.777570  -22.330665   27.794107
 H   -8.421748  -20.770096   26.934638
 H   -9.969745  -18.912098   27.413873
 H  -10.166200  -18.005634   29.719824
 H   -8.801497  -18.973835   31.540663
 H   -7.095847  -20.636597   32.308838
 H   -5.553631  -22.503276   31.774992
