24 
3st6_ligand_aiqm1.xyz
 C    2.713126    1.247033    1.930756
 O    2.295543   -0.271928   -1.288848
 O   -2.131030    1.696425   -1.829059
 O    3.254421    1.669083   -0.711803
 O   -4.016362    0.758588   -1.065524
 O   -0.062208    1.365271    0.003748
 C   -1.765577   -2.183266    1.005622
 C   -0.445083   -2.035184    1.194474
 C   -2.507607   -1.218038    0.207763
 O    1.397662   -0.589838    1.370771
 C    2.572869    0.544970   -0.446687
 C   -2.809651    0.823773   -1.071658
 C    2.219386    0.433222    0.995300
 C    0.324037   -0.943454    0.515247
 C   -0.524332    0.246336    0.076944
 C   -1.936447   -0.093454   -0.284561
 H    3.407994    2.022366    1.652622
 H    2.421103    1.114575    2.962620
 H   -2.798567    2.232146   -2.277144
 H    3.396993    1.675837   -1.665502
 H   -2.301154   -3.012269    1.444382
 H    0.146986   -2.718159    1.789630
 H   -3.559864   -1.394237    0.008737
 H    0.708063   -1.369798   -0.413432
