24 
3st6_ligand_ani-2x.xyz
 C    2.508808    1.891081    1.241070
 O    2.950086   -1.282749   -0.381291
 O   -2.970877    2.043504   -1.006806
 O    4.337429    0.474064   -0.247021
 O   -4.481643    0.409209   -0.806042
 O   -0.730815    1.675226    0.565653
 C   -1.500243   -2.276034    0.466735
 C   -0.228408   -1.851561    0.703478
 C   -2.492428   -1.378752    0.011425
 O    1.181171   -0.067967    1.327038
 C    3.191522   -0.170469    0.024913
 C   -3.341910    0.800904   -0.664196
 C    2.258601    0.634750    0.874888
 C    0.225238   -0.492337    0.356353
 C   -0.947250    0.519886    0.281523
 C   -2.245105   -0.035891   -0.137132
 H    3.405021    2.392526    0.898981
 H    1.802349    2.420546    1.873027
 H   -3.779958    2.471528   -1.332991
 H    4.868956   -0.130183   -0.791302
 H   -1.768952   -3.318850    0.618251
 H    0.537798   -2.516031    1.083074
 H   -3.492307   -1.729791   -0.222424
 H    0.713217   -0.482610   -0.632805
