54 
3stj_ligand_ani-2x.xyz
 N    0.304918   -0.645777    2.586554
 C    1.794549   -0.591418    2.738869
 C    2.405060    0.146421    1.538584
 O    2.972920    1.227934    1.681615
 C    2.370303   -1.990766    2.949933
 N    2.285686   -0.453410    0.327352
 C    2.663454    0.274531   -0.883430
 C    1.489470    1.215301   -1.221393
 O    0.601202    0.889317   -2.004514
 C    3.000460   -0.670750   -2.022989
 N    1.498581    2.384825   -0.525558
 C    0.267525    3.144103   -0.305327
 C   -0.702703    2.262528    0.503542
 O   -0.351587    1.842029    1.605182
 C   -0.287752    3.745776   -1.589297
 N   -1.902186    1.948075   -0.040232
 C   -2.767482    0.956273    0.569680
 C   -2.464843   -0.492303    0.172596
 O   -2.919307   -1.414676    0.843246
 C   -4.237610    1.266720    0.293309
 N   -1.751935   -0.731404   -0.957137
 C   -1.592296   -2.100471   -1.380109
 C   -0.880676   -2.915532   -0.304624
 O   -1.276027   -4.189243   -0.316777
 C   -0.828273   -2.169767   -2.698586
 O   -0.011129   -2.513373    0.443862
 H    0.032515   -1.361407    1.886019
 H   -0.134271   -0.886255    3.491523
 H   -0.055434    0.287229    2.289609
 H    2.039208    0.045123    3.590891
 H    2.074229   -2.669774    2.146307
 H    2.017769   -2.405544    3.899933
 H    3.461937   -1.950669    2.984674
 H    1.640806   -1.234607    0.235781
 H    3.531106    0.885433   -0.618640
 H    3.333180   -0.109868   -2.901427
 H    2.123905   -1.259225   -2.312759
 H    3.798556   -1.354932   -1.721224
 H    2.146675    2.397549    0.258438
 H    0.546352    3.949835    0.382384
 H    0.473447    4.399277   -2.023773
 H   -1.180433    4.347297   -1.386444
 H   -0.520219    2.967802   -2.316631
 H   -2.135136    2.279921   -0.965075
 H   -2.582920    0.988986    1.648637
 H   -4.451867    1.233765   -0.781969
 H   -4.876636    0.530656    0.788970
 H   -4.487195    2.261994    0.671781
 H   -1.198954   -0.005494   -1.409019
 H   -2.575997   -2.566277   -1.497735
 H   -0.779250   -4.647100    0.382081
 H   -1.417929   -1.708327   -3.496015
 H   -0.625499   -3.208187   -2.976258
 H    0.121436   -1.631746   -2.628511
