54 
3stj_ligand_aiqm1.xyz
 N    0.530047   -0.733923    2.645608
 C    2.037928   -0.810089    2.628950
 C    2.560395   -0.029948    1.414972
 O    3.186437    1.002035    1.600706
 C    2.483113   -2.260283    2.657991
 N    2.290400   -0.540362    0.198318
 C    2.627737    0.223370   -1.016861
 C    1.456982    1.197094   -1.219469
 O    0.460288    0.884481   -1.863965
 C    2.814294   -0.706086   -2.194248
 N    1.556712    2.366549   -0.548276
 C    0.361386    3.149236   -0.263359
 C   -0.637179    2.218418    0.439904
 O   -0.270205    1.559205    1.422373
 C   -0.170747    3.879806   -1.488360
 N   -1.873563    2.087777   -0.041965
 C   -2.833985    1.191099    0.583166
 C   -2.493800   -0.289585    0.398950
 O   -2.876457   -1.127472    1.203733
 C   -4.221935    1.460995    0.017756
 N   -1.806530   -0.647156   -0.715411
 C   -1.760462   -2.044261   -1.084836
 C   -1.002628   -2.866855   -0.060975
 O   -1.391099   -4.129168   -0.041696
 C   -1.100628   -2.217200   -2.447327
 O   -0.092143   -2.452763    0.643066
 H    0.150311   -1.371654    1.930107
 H    0.173882   -1.011774    3.555099
 H    0.220049    0.220440    2.428321
 H    2.416474   -0.273698    3.489646
 H    2.093228   -2.804945    1.800045
 H    2.149486   -2.756360    3.567913
 H    3.567571   -2.307878    2.629312
 H    1.664813   -1.332290    0.103704
 H    3.538801    0.779253   -0.804132
 H    3.062859   -0.134672   -3.085442
 H    1.893939   -1.251978   -2.395928
 H    3.613154   -1.415996   -1.988884
 H    2.303463    2.424160    0.131348
 H    0.647451    3.878038    0.491551
 H    0.611358    4.524559   -1.879595
 H   -1.020097    4.507499   -1.224347
 H   -0.453929    3.182018   -2.272910
 H   -2.148028    2.606534   -0.859490
 H   -2.832458    1.365943    1.656528
 H   -4.232177    1.291094   -1.061213
 H   -4.953357    0.804400    0.481446
 H   -4.506057    2.492399    0.216365
 H   -1.330634    0.036149   -1.287009
 H   -2.772202   -2.446745   -1.112346
 H   -0.858960   -4.612886    0.603539
 H   -1.663356   -1.649581   -3.184376
 H   -1.093016   -3.264375   -2.743049
 H   -0.077226   -1.842165   -2.429049
