47 
3sxf_ligand_aiqm1.xyz
 N   21.723752   12.294893   63.888261
 C   22.820164   13.041725   63.657226
 N   22.907017   14.340798   63.418950
 C   21.697926   14.933984   63.454813
 C   20.473563   14.311082   63.724403
 C   20.540095   12.915603   63.918639
 C    9.719200   15.025975   65.601858
 C   22.329738   18.400096   63.920567
 C   22.114738   17.796824   61.478814
 N   19.450078   12.141628   64.154150
 C   14.178834   13.807377   66.381929
 C   17.199393   16.125774   63.071996
 C   15.528269   13.800710   66.173208
 C   15.845783   16.130370   63.275541
 C   13.857094   15.345927   64.532966
 C   17.507580   14.570199   64.894055
 C   11.109567   15.276253   65.068141
 N   20.111860   16.500266   63.331414
 O   12.007759   14.506720   65.859967
 C   13.326703   14.588074   65.551977
 C   18.055642   15.327420   63.881757
 C   19.506797   15.365279   63.646665
 C   15.260379   15.349787   64.306748
 C   16.109996   14.567654   65.128262
 C   22.398522   17.289254   62.884685
 N   21.435899   16.235974   63.226076
 H   23.752050   12.492159   63.654697
 H    9.467315   13.968479   65.529951
 H    9.650483   15.331050   66.645399
 H    8.995391   15.598230   65.021722
 H   23.065036   19.170121   63.684313
 H   21.336578   18.850986   63.911609
 H   22.529156   18.017198   64.921533
 H   21.119557   18.243622   61.440908
 H   22.847303   18.556573   61.204842
 H   22.161431   16.984856   60.752373
 H   19.595523   11.148047   64.128106
 H   18.536253   12.495481   63.937983
 H   13.723042   13.230022   67.175278
 H   17.642783   16.741549   62.298779
 H   16.170418   13.207900   66.813933
 H   15.205954   16.743287   62.650867
 H   13.234908   15.952858   63.890482
 H   18.136587   13.972723   65.545212
 H   11.373901   16.335288   65.139513
 H   11.190139   14.969837   64.020925
 H   23.371243   16.801690   62.917707
