47 
3sxf_ligand_ani-2x.xyz
 N   21.606380   12.313664   63.771495
 C   22.728418   13.036514   63.612048
 N   22.859842   14.344867   63.487625
 C   21.679403   14.981704   63.558972
 C   20.430644   14.383317   63.768429
 C   20.446875   12.969514   63.821000
 C    9.702702   14.915890   65.589396
 C   22.075953   18.678703   63.598138
 C   22.553569   17.344538   61.498702
 N   19.300555   12.236031   63.957068
 C   14.164095   13.651678   66.311298
 C   17.214250   16.346040   63.315054
 C   15.515980   13.677402   66.125555
 C   15.861102   16.316061   63.505010
 C   13.859593   15.386507   64.639031
 C   17.507578   14.606211   64.962554
 C   11.104899   15.231865   65.114037
 N   20.143005   16.614882   63.540947
 O   11.999012   14.397424   65.831224
 C   13.323540   14.517655   65.556882
 C   18.057090   15.459935   64.035171
 C   19.509104   15.482243   63.787817
 C   15.268262   15.422019   64.438025
 C   16.106820   14.562293   65.182790
 C   22.437180   17.318040   63.021819
 N   21.457368   16.316471   63.444500
 H   23.650411   12.459501   63.571997
 H    9.463829   13.865381   65.401504
 H    9.611438   15.107097   66.662267
 H    8.976288   15.539744   65.060008
 H   22.833944   19.417334   63.317785
 H   21.102318   19.004202   63.219070
 H   22.023906   18.629846   64.688834
 H   21.611762   17.659016   61.033976
 H   23.338912   18.045287   61.194677
 H   22.816364   16.347316   61.132011
 H   19.429302   11.245990   63.791421
 H   18.472048   12.632648   63.533985
 H   13.695659   12.982565   67.026264
 H   17.664926   17.041557   62.611890
 H   16.163529   13.017478   66.699562
 H   15.214233   16.986826   62.942572
 H   13.236412   16.056567   64.055055
 H   18.151671   13.945646   65.533945
 H   11.353341   16.285516   65.299207
 H   11.205581   15.042392   64.036930
 H   23.392305   16.978220   63.431657
