26 
3sz9_ligand_xtb.xyz
 C   71.869485   57.441176   72.142244
 C   70.896210   58.393614   71.868577
 C   70.624508   58.764945   70.566524
 C   71.312534   58.200638   69.493085
 C   72.290571   57.243673   69.766441
 C   72.557540   56.876855   71.068563
 C   72.220218   56.986744   73.533547
 C   71.431800   57.642514   74.659524
 C   70.957128   58.657467   68.125861
 O   70.098267   59.492742   67.945065
 C   71.717305   58.031180   66.972078
 C   71.259731   58.583434   65.628727
 H   70.341266   58.854296   72.670100
 H   69.867861   59.505478   70.352839
 H   72.848556   56.779824   68.967910
 H   73.318129   56.133957   71.265991
 H   73.287785   57.170715   73.690578
 H   72.077257   55.902556   73.581531
 H   71.588040   58.718729   74.667569
 H   70.368049   57.440564   74.557733
 H   71.761835   57.245228   75.616915
 H   71.564962   56.949614   67.006792
 H   72.782894   58.225724   67.116549
 H   70.199764   58.389808   65.485273
 H   71.411355   59.659276   65.594457
 H   71.816348   58.122049   64.816527
