26 
3sz9_ligand_aiqm1.xyz
 C   71.876367   57.433525   72.153092
 C   70.896341   58.395409   71.883396
 C   70.614231   58.777413   70.575869
 C   71.298886   58.213669   69.498417
 C   72.280409   57.251065   69.760434
 C   72.560357   56.871143   71.067367
 C   72.227493   56.977673   73.550249
 C   71.435523   57.640853   74.668591
 C   70.951655   58.664170   68.118877
 O   70.092153   59.502776   67.939301
 C   71.707666   58.039192   66.960574
 C   71.269603   58.574510   65.606699
 H   70.347461   58.851787   72.696281
 H   69.855406   59.521646   70.372716
 H   72.831464   56.792551   68.950090
 H   73.324528   56.123551   71.249269
 H   73.295617   57.150431   73.704359
 H   72.091970   55.894187   73.596942
 H   71.584714   58.721333   74.676137
 H   70.366421   57.449665   74.567482
 H   71.752209   57.254623   75.638020
 H   71.565494   56.956150   67.012033
 H   72.774528   58.218760   67.120074
 H   70.210222   58.385679   65.439853
 H   71.421545   59.651203   65.548297
 H   71.837138   58.099836   64.806580
