20 
3szb_ligand_aiqm1.xyz
 C   12.054803   13.944283   67.136309
 C   12.945821   13.047021   67.711643
 C   14.042701   12.589106   66.984146
 C   14.243929   13.032312   65.680097
 C   13.351324   13.932326   65.101142
 C   12.247997   14.395623   65.826857
 C   11.256702   15.361452   65.258784
 O   10.312808   15.738583   65.921722
 C   11.475526   15.845053   63.837470
 C   10.407035   16.820844   63.370813
 H   11.198568   14.309399   67.687156
 H   12.786937   12.703954   68.725886
 H   14.737491   11.890057   67.431643
 H   15.094027   12.679603   65.111531
 H   13.519813   14.268505   64.086586
 H   11.508433   14.967377   63.186038
 H   12.466540   16.304585   63.788252
 H    9.420358   16.361746   63.407819
 H   10.380780   17.701608   64.010552
 H   10.603209   17.140462   62.347756
