58 
3t1m_ligand_aiqm1.xyz
 C   -0.830711   -2.809867   -1.670173
 O   -2.056708   -2.659264   -2.269935
 C   -0.247178   -1.423286   -1.397697
 O   -1.213044   -0.749156   -0.592557
 C    1.108009   -1.582900   -0.697158
 N    1.657182   -0.287413   -0.342082
 C    1.033774   -2.519132    0.520682
 O    0.387425   -1.924436    1.630677
 C    0.302082   -3.803203    0.141231
 O   -0.963619   -3.542251   -0.480057
 C    0.009857   -4.696366    1.323256
 O   -0.505274   -5.951171    0.904326
 C   -1.310052    0.581718   -0.693814
 O   -0.500723    1.257171   -1.305096
 C   -2.475111    1.137700    0.032003
 C   -2.639248    2.525312    0.043480
 C   -3.717551    3.090422    0.710895
 C   -4.651418    2.290822    1.377291
 C   -4.475603    0.901614    1.355990
 C   -3.401968    0.324008    0.693001
 C   -5.819541    2.903880    2.101158
 C    2.997436   -0.142255   -0.128749
 O    3.736713   -1.107643    0.009105
 C    3.500913    1.260391   -0.016101
 C    4.773160    1.435105    0.532590
 C    5.313523    2.703714    0.678706
 C    4.601012    3.837918    0.271811
 C    3.335157    3.654639   -0.286887
 C    2.782455    2.384834   -0.432771
 C    5.188802    5.214386    0.429571
 C   -2.596582   -3.870247   -2.778218
 H   -0.125797   -3.335791   -2.341145
 H   -0.109328   -0.886582   -2.338400
 H    1.773272   -2.075089   -1.414928
 H    1.123191    0.514036   -0.641491
 H    2.060953   -2.784359    0.790885
 H    0.708966   -1.019395    1.675314
 H    0.941383   -4.343704   -0.574999
 H    0.938257   -4.904890    1.852821
 H   -0.678203   -4.185973    2.001527
 H   -1.362666   -5.789478    0.505203
 H   -1.917562    3.143049   -0.475072
 H   -3.837658    4.167543    0.715354
 H   -5.189229    0.266011    1.866840
 H   -3.274536   -0.749433    0.682227
 H   -5.801571    2.639113    3.159078
 H   -5.802817    3.990658    2.017767
 H   -6.763063    2.541375    1.690951
 H    5.322244    0.554894    0.836956
 H    6.301705    2.817412    1.110176
 H    2.767922    4.516387   -0.617721
 H    1.801247    2.293252   -0.885347
 H    4.504951    5.975520    0.053067
 H    5.398857    5.429339    1.478554
 H    6.130982    5.299178   -0.114156
 H   -2.864544   -4.558125   -1.976800
 H   -3.487331   -3.594780   -3.334226
 H   -1.882592   -4.355313   -3.450913
