48 
3t2v_ligand_xtb.xyz
 O   -1.517609    1.670053    1.086794
 C   -1.224685    1.823334   -0.275564
 C    0.308752    1.813755   -0.531623
 C    0.879192    3.043007    0.129033
 O    1.590102    3.798984   -0.709190
 O    0.701197    3.353745    1.282119
 C   -1.941993    0.711989   -1.044562
 C   -3.454383    0.918580   -1.012648
 C   -4.229291   -0.171966   -1.751855
 C   -4.053970   -1.585303   -1.190515
 C   -4.397273   -1.735800    0.292079
 C   -5.853343   -1.412226    0.604794
 C    0.977826    0.557605    0.043109
 C    2.499629    0.609467   -0.070293
 C    3.142239   -0.697255    0.388742
 C    4.665138   -0.650490    0.293834
 C    5.309903   -1.958482    0.746022
 C    6.829598   -1.904469    0.650044
 H   -0.958275    2.285854    1.585933
 H   -1.607643    2.798694   -0.632156
 H    0.500394    1.885125   -1.604832
 H    1.933643    4.587243   -0.257325
 H   -1.696544   -0.236039   -0.569635
 H   -1.588461    0.696745   -2.077085
 H   -3.688693    1.881007   -1.475735
 H   -3.772966    0.969906    0.027750
 H   -3.913549   -0.180966   -2.798831
 H   -5.289062    0.088856   -1.736494
 H   -4.692484   -2.259063   -1.768580
 H   -3.022573   -1.908925   -1.344704
 H   -3.745830   -1.096377    0.889016
 H   -4.195379   -2.770002    0.583244
 H   -6.518956   -2.009572   -0.015476
 H   -6.071688   -1.628680    1.648215
 H   -6.066476   -0.361610    0.426771
 H    0.607170   -0.312265   -0.500377
 H    0.687475    0.453025    1.089977
 H    2.780851    0.807288   -1.107741
 H    2.885992    1.430184    0.538930
 H    2.767495   -1.519107   -0.225977
 H    2.850454   -0.898208    1.421958
 H    4.956640   -0.443533   -0.738799
 H    5.040346    0.168070    0.912675
 H    4.936037   -2.777254    0.126955
 H    5.018517   -2.165369    1.778238
 H    7.140732   -1.717966   -0.375652
 H    7.223126   -1.106809    1.276459
 H    7.268174   -2.844680    0.976059
