33 
3t3d_ligand_xtb.xyz
 N    1.652949    0.017913   -0.166078
 O    2.159904   -1.698642   -1.568445
 C    2.541136   -0.801568   -0.845724
 N    3.855175   -0.519400   -0.631989
 C    4.401899    0.451484    0.218194
 O    5.598499    0.572738    0.309178
 C    3.388082    1.219527    0.914118
 C    2.084394    0.977292    0.702230
 C    0.239943   -0.227307   -0.382080
 O   -0.452433    0.977404   -0.232604
 C   -1.833327    0.863771   -0.560109
 C   -2.441374    2.261456   -0.408785
 O   -1.903226    3.169133   -1.326287
 C   -2.529223   -0.156723    0.349341
 O   -3.858553   -0.287296   -0.066798
 C   -1.790304   -1.500565    0.277528
 O   -2.383062   -2.380878    1.197754
 C   -0.298506   -1.292190    0.591245
 O    0.403652   -2.503416    0.538355
 H    4.518248   -1.105450   -1.128986
 H    3.718250    1.980909    1.598405
 H    1.295371    1.531494    1.186560
 H    0.138540   -0.611988   -1.414352
 H   -1.939572    0.536256   -1.604917
 H   -2.281449    2.602102    0.623730
 H   -3.511614    2.199643   -0.608577
 H   -0.944011    3.164213   -1.224233
 H   -2.484736    0.199564    1.392097
 H   -4.230391   -1.049230    0.396795
 H   -1.886709   -1.907871   -0.744633
 H   -1.757781   -3.100161    1.358025
 H   -0.203745   -0.923757    1.621805
 H    0.733975   -2.658254   -0.360463
