44 
3t3v_ligand_ani-2x.xyz
 N   16.969915   11.589011   62.935873
 C   18.107287   12.255710   62.673633
 N   18.284875   13.552494   62.496408
 C   17.140720   14.243390   62.629178
 C   15.885960   13.708163   62.946093
 C   15.845853   12.297307   63.044842
 C    6.740995   15.015746   64.908736
 C   17.695099   17.918613   62.515296
 C   17.966005   16.499928   60.434492
 N   14.682172   11.620357   63.285813
 C    9.792803   13.335806   65.946251
 C   12.731513   15.797893   62.654780
 C   11.128197   13.294640   65.665833
 C   11.395310   15.834148   62.940517
 C    9.441965   15.030200   64.243033
 C   13.068433   14.097784   64.334949
 N   15.677753   15.942397   62.664625
 O    7.630254   14.163235   65.594663
 C    8.936873   14.214330   65.225185
 C   13.585545   14.897465   63.343044
 C   15.015705   14.847313   62.993403
 C   10.833855   14.996437   63.942253
 C   11.686373   14.123294   64.654542
 C   17.956708   16.525962   61.962044
 N   16.967914   15.582672   62.485815
 H   18.998703   11.637085   62.588222
 H    7.009388   16.070410   65.049432
 H    6.717735   14.789305   63.835270
 H    5.754718   14.833576   65.337911
 H   18.461813   18.613677   62.157865
 H   16.711644   18.275237   62.193997
 H   17.718571   17.906019   63.607998
 H   17.007887   16.841603   60.025663
 H   18.756855   17.155158   60.053090
 H   18.159744   15.481089   60.084648
 H   14.756457   10.620986   63.144671
 H   13.842983   12.040729   62.909292
 H    9.347030   12.711054   66.714200
 H   13.159549   16.450862   61.898667
 H   11.786549   12.624178   66.214786
 H   10.739623   16.516130   62.402161
 H    8.808863   15.709051   63.682148
 H   13.723301   13.426805   64.881422
 H   18.923301   16.156853   62.315857
