24 
3tiy_ligand_ani-2x.xyz
 C  -94.710807    9.740651  -48.709802
 C  -94.304306    9.743787  -50.044736
 O  -92.976420    9.054414  -51.763008
 C  -93.246967    8.938784  -50.443738
 C  -92.541659    8.093012  -49.543066
 C  -92.968382    8.101388  -48.185714
 C  -92.426461    7.339786  -47.069915
 C  -91.416956    6.452207  -47.002739
 C  -90.564559    5.997491  -48.058096
 C  -90.577946    6.355202  -49.366071
 C  -91.443823    7.297976  -50.111517
 O  -91.150140    7.368892  -51.331270
 O  -89.660913    5.776851  -50.164193
 C  -94.044199    8.930368  -47.817153
 O  -95.751985   10.549918  -48.380300
 O  -94.952204   10.536383  -50.932001
 H  -92.221378    8.453598  -51.953282
 H  -92.945763    7.539909  -46.133641
 H  -91.204541    6.011573  -46.029785
 H  -89.800066    5.269808  -47.795877
 H  -89.830902    6.156847  -51.048163
 H  -94.367147    8.933233  -46.776937
 H  -95.931152   10.455301  -47.435668
 H  -94.522922   10.393822  -51.790328
