33 
3tll_ligand_xtb.xyz
 N   17.447451   17.406893   17.338786
 N   19.467062   18.112490   18.004702
 C   18.699346   17.857710   16.984053
 C   18.161613   18.094651   14.605265
 C   18.714406   17.813647   19.117060
 C   19.022138   17.896240   20.458180
 C   18.041884   17.526676   21.379635
 C   16.059746   16.777776   23.123556
 C   16.760896   17.076934   20.968352
 C   16.450688   16.994512   19.608180
 C   17.426362   17.361988   18.713976
 N   19.105255   17.959308   15.689808
 C   18.333335   17.604072   22.803057
 O   19.370181   17.970543   23.318328
 N   17.274054   17.197479   23.610970
 N   15.106887   16.488511   24.051090
 C   13.882203   15.824232   23.662653
 N   15.792629   16.706304   21.865109
 C   14.028082   14.305544   23.617598
 H   16.702329   17.132591   16.723834
 H   18.714358   18.177261   13.672523
 H   17.535079   17.202729   14.548143
 H   17.514990   18.974713   14.709559
 H   19.984067   18.233275   20.807590
 H   15.474621   16.651974   19.304148
 H   19.967514   18.475602   15.603359
 H   17.434618   17.255844   24.609236
 H   15.429578   16.307366   24.990159
 H   13.104140   16.111542   24.374971
 H   13.627490   16.202549   22.672535
 H   13.088620   13.849150   23.319413
 H   14.793702   14.032393   22.896104
 H   14.308675   13.914502   24.594065
