33 
3tll_ligand_dft.xyz
 N   17.473238   17.348985   17.350299
 N   19.494657   18.096000   18.003984
 C   18.726865   17.803238   16.990759
 C   18.118347   18.087006   14.631539
 C   18.722373   17.799329   19.121159
 C   19.018607   17.908577   20.466609
 C   18.037509   17.537920   21.393410
 C   16.058394   16.793305   23.159085
 C   16.761632   17.060841   20.994156
 C   16.460350   16.954143   19.629546
 C   17.444008   17.324450   18.733927
 N   19.102781   17.891696   15.676924
 C   18.328673   17.658360   22.821617
 O   19.360076   18.067848   23.325330
 N   17.267434   17.255448   23.635912
 N   15.125929   16.495328   24.121920
 C   13.882595   15.834919   23.747061
 N   15.784488   16.676752   21.902418
 C   14.042670   14.349660   23.431197
 H   16.756099   17.006493   16.733270
 H   18.641630   18.240279   13.686268
 H   17.501977   17.188447   14.511538
 H   17.457195   18.947248   14.810452
 H   19.979578   18.268838   20.816188
 H   15.484381   16.590076   19.327652
 H   19.966728   18.405480   15.580178
 H   17.414168   17.403818   24.625622
 H   15.500841   16.224504   25.020295
 H   13.179552   15.984192   24.572831
 H   13.491122   16.364277   22.876368
 H   13.075018   13.908332   23.170330
 H   14.722721   14.218634   22.585361
 H   14.442362   13.802576   24.292792
