58 
3tvc_ligand_ani-2x.xyz
 C   -8.825116   -0.163326   -1.051551
 N   -5.002188    0.068829    0.969460
 C   -7.700976   -1.133766   -0.788904
 O   -4.783865    0.136042   -1.282215
 C   -7.217403   -1.065464    0.657558
 N   -8.105768    1.235796    2.419818
 C   -6.434609    0.243078    0.965730
 C   -6.824885    0.818515    2.337067
 O   -6.026215    0.873000    3.260775
 C   -4.265738    0.086297   -0.173228
 O   -9.278748    0.637105   -0.258489
 C   -2.759685    0.035891    0.032226
 O   -9.309853   -0.267755   -2.296302
 C   -1.999670   -0.043460   -1.294075
 C   -0.506591   -0.072523   -1.097167
 C    0.213965   -1.265013   -1.180076
 C    1.586506   -1.287319   -0.970305
 C    2.284444   -0.117808   -0.655107
 C    1.559764    1.075177   -0.561366
 C    0.190342    1.096231   -0.781195
 C    6.540394   -0.183518    0.014541
 C    5.690985    0.547995    0.850478
 C    4.324119    0.581266    0.625769
 C    3.749096   -0.140662   -0.425130
 C    4.597343   -0.884516   -1.251876
 C    5.967470   -0.893223   -1.045408
 C    8.006649   -0.206059    0.245542
 C    8.900970   -0.083344   -0.822409
 C   10.274261   -0.096324   -0.606657
 C   10.778159   -0.248613    0.682237
 C    9.898099   -0.379640    1.753068
 C    8.525245   -0.350451    1.536120
 H   -4.566861    0.159353    1.880414
 H   -8.068391   -2.136141   -1.033811
 H   -6.885209   -0.905312   -1.485271
 H   -6.561595   -1.913890    0.874907
 H   -8.085870   -1.146799    1.320457
 H   -8.721981    1.179813    1.618730
 H   -8.428005    1.644167    3.283735
 H   -6.694136    0.976473    0.192256
 H   -2.514424   -0.823470    0.668596
 H   -2.453538    0.929560    0.594652
 H  -10.022153    0.389412   -2.372956
 H   -2.287886    0.813844   -1.911795
 H   -2.329361   -0.933339   -1.839831
 H   -0.303704   -2.189927   -1.425145
 H    2.125570   -2.229912   -1.033993
 H    2.082800    2.000130   -0.330157
 H   -0.350968    2.036927   -0.697978
 H    6.111822    1.122832    1.671716
 H    3.686345    1.153642    1.294826
 H    4.179403   -1.440813   -2.087240
 H    6.602917   -1.484294   -1.700243
 H    8.511779    0.044084   -1.830449
 H   10.952537    0.005157   -1.449857
 H   11.851505   -0.265086    0.851360
 H   10.280945   -0.497389    2.763467
 H    7.841359   -0.461361    2.375080
