16 
3twp_ligand_dft.xyz
 C   -1.717196   -0.434502    0.000004
 O   -2.472540    0.670675    0.000919
 O   -2.232266   -1.525471   -0.000624
 C   -0.216849   -0.274657   -0.000119
 C    0.475713    0.944753   -0.000187
 C    1.868180    0.975497   -0.000074
 C    2.587215   -0.212895    0.000201
 C    1.920545   -1.435111    0.000248
 C    0.533453   -1.453604    0.000037
 O   -0.250671    2.105155   -0.000803
 H   -1.917613    1.468528    0.000911
 H    2.387259    1.931417   -0.000250
 H    3.672313   -0.178416    0.000332
 H    2.478493   -2.365246    0.000438
 H   -0.016614   -2.388373    0.000073
 H    0.333608    2.872329    0.001884
