16 
3twp_ligand_aiqm1.xyz
 C   71.062388   80.822866   28.411825
 O   71.906129   81.761281   28.866195
 O   70.779080   79.875160   29.098509
 C   70.489578   80.991990   27.033715
 C   70.756289   82.054639   26.162860
 C   70.170194   82.114112   24.902196
 C   69.305257   81.108042   24.492424
 C   69.022318   80.039175   25.339411
 C   69.613815   79.992848   26.593067
 O   71.614065   83.043670   26.582112
 H   72.024114   82.447170   28.195016
 H   70.390988   82.946454   24.243422
 H   68.854939   81.163717   23.510798
 H   68.350118   79.253867   25.025625
 H   69.419334   79.179851   27.278839
 H   71.711194   83.704057   25.894486
