16 
3twp_ligand_ani-2x.xyz
 C   71.061035   80.820606   28.413367
 O   71.904355   81.752925   28.875307
 O   70.770928   79.867607   29.093970
 C   70.488491   80.994294   27.028617
 C   70.757038   82.059345   26.157961
 C   70.168856   82.115105   24.897645
 C   69.304212   81.106187   24.492008
 C   69.022579   80.038847   25.339463
 C   69.614349   79.993513   26.592964
 O   71.612923   83.045526   26.578168
 H   72.041428   82.456428   28.219039
 H   70.389812   82.950611   24.235258
 H   68.848842   81.156612   23.506874
 H   68.347399   79.248371   25.026092
 H   69.421440   79.179066   27.284099
 H   71.716113   83.713858   25.889669
