56 
3ty0_ligand_aiqm1.xyz
 C   -2.363424   -4.884477   -0.458856
 C   -1.097163   -5.313320   -0.849528
 C    3.693889   -2.642692    0.970438
 C   -1.893942    2.014444   -0.261519
 C    3.809821   -1.376395    1.533386
 C    3.003333   -2.822867   -0.226694
 C   -2.735013   -3.537727   -0.522545
 C   -0.143167   -4.411953   -1.330258
 C   -2.347553    3.245886    0.184948
 C    2.548669   -0.456720   -0.310275
 C   -4.656054    2.444781    0.288695
 C   -2.823886    0.973528   -0.425905
 C    3.234930   -0.274620    0.888539
 C    2.423363   -1.730888   -0.871394
 C   -1.780710   -2.648886   -0.988253
 C   -0.515971   -3.080257   -1.389704
 C   -4.162437    1.228033   -0.143105
 C   -3.718721    3.460001    0.452078
 C   -2.854863   -0.416573   -0.798525
 C    2.710483    1.124722    2.901109
 C    1.551787    2.529877    1.491011
 C   -0.572975   -0.831343   -1.670119
 C    3.372313    1.104220    1.512556
 C    4.796305    1.621003    1.574579
 C   -3.308733    5.725321    1.015427
 C    1.606726   -1.901569   -2.134188
 N   -4.064079   -0.914121   -0.736510
 N    1.624238    1.952811    2.751639
 N   -1.800966   -1.251904   -1.153002
 N    0.185109   -1.965834   -1.830899
 O    3.066917    0.565917    3.904977
 O    0.740503    3.313875    1.102533
 O   -0.230157    0.301382   -1.945687
 O   -4.911394    0.121166   -0.325085
 O    2.589867    2.068776    0.764992
 O   -4.219799    4.645198    0.882174
 H   -3.079506   -5.610746   -0.101484
 H   -0.844447   -6.362528   -0.786681
 H    4.134462   -3.494976    1.470458
 H   -0.848902    1.886779   -0.492138
 H    4.324755   -1.249982    2.476824
 H    2.913940   -3.817322   -0.650142
 H   -3.720894   -3.204779   -0.238865
 H    0.834945   -4.748599   -1.647958
 H   -1.632740    4.039653    0.329036
 H    2.096792    0.381147   -0.823641
 H   -5.703561    2.607369    0.491733
 H    5.214530    1.661621    0.570543
 H    5.408907    0.962232    2.187970
 H    4.814928    2.622366    2.006432
 H   -3.902108    6.574474    1.340564
 H   -2.830567    5.954686    0.061740
 H   -2.543359    5.505334    1.761571
 H    1.743627   -1.049962   -2.799492
 H    1.887661   -2.810069   -2.665825
 H    0.974490    2.175003    3.483526
