56 
3ty0_ligand_ani-2x.xyz
 C   -2.493339   -4.925437   -0.610079
 C   -1.197049   -5.368900   -0.912147
 C    3.485189   -2.543746    1.259712
 C   -1.893634    1.819355   -0.151624
 C    3.642514   -1.245777    1.727539
 C    2.840483   -2.778597    0.048198
 C   -2.850154   -3.589754   -0.722809
 C   -0.215456   -4.484141   -1.338223
 C   -2.310270    3.035845    0.358862
 C    2.508749   -0.416674   -0.228513
 C   -4.662776    2.450935    0.024281
 C   -2.857930    0.895564   -0.566187
 C    3.146680   -0.175472    0.985236
 C    2.348336   -1.715635   -0.709332
 C   -1.860655   -2.708810   -1.154835
 C   -0.569228   -3.146750   -1.453324
 C   -4.203901    1.232807   -0.462101
 C   -3.685479    3.348884    0.437854
 C   -2.919766   -0.452929   -1.078889
 C    3.117687    1.425615    2.940020
 C    1.613767    2.700664    1.752770
 C   -0.606122   -0.904112   -1.792929
 C    3.390041    1.251726    1.436716
 C    4.789623    1.744314    1.098789
 C   -3.205487    5.479576    1.350008
 C    1.613444   -1.956810   -2.018087
 N   -4.154398   -0.843086   -1.263414
 N    2.042786    2.273263    3.002782
 N   -1.872631   -1.317635   -1.354153
 N    0.168916   -2.044474   -1.854331
 O    3.726845    0.954942    3.869688
 O    0.703649    3.446480    1.522038
 O   -0.251087    0.219335   -2.077877
 O   -4.969351    0.211693   -0.886993
 O    2.421703    2.131986    0.827823
 O   -4.151875    4.527723    0.917514
 H   -3.235822   -5.646811   -0.279710
 H   -0.957737   -6.423990   -0.812864
 H    3.868866   -3.378561    1.839956
 H   -0.838656    1.598059   -0.246544
 H    4.143113   -1.057773    2.674816
 H    2.730108   -3.800692   -0.311798
 H   -3.852005   -3.240376   -0.491358
 H    0.786142   -4.831610   -1.578300
 H   -1.555180    3.734353    0.703040
 H    2.137029    0.426239   -0.802520
 H   -5.713710    2.702268    0.093849
 H    4.975107    1.643469    0.024793
 H    5.525086    1.147299    1.647478
 H    4.896580    2.795766    1.377737
 H   -3.776956    6.342407    1.694351
 H   -2.540666    5.782431    0.529987
 H   -2.595302    5.088627    2.175299
 H    1.791271   -1.128105   -2.708063
 H    1.958181   -2.878595   -2.495710
 H    1.624927    2.594127    3.862777
