24 
3tz2_ligand_aiqm1.xyz
 C   -8.633654  -30.537811   13.772811
 C   -8.406085  -30.749703   15.265252
 C   -9.301049  -31.847940   15.843839
 C   -9.056026  -32.052002   17.315876
 C   -8.184869  -33.049453   17.761533
 C   -9.660003  -31.223306   18.264951
 C   -7.922123  -33.212535   19.119088
 C   -9.401294  -31.384267   19.622988
 C   -8.528616  -32.379158   20.054845
 C   -8.164496  -31.701707   12.925384
 O   -8.510063  -31.630424   11.614531
 O   -7.519290  -32.631783   13.318783
 H   -8.096524  -29.650383   13.422951
 H   -9.695592  -30.364598   13.571074
 H   -8.598242  -29.811384   15.790047
 H   -7.360616  -31.010091   15.439313
 H   -9.118059  -32.781931   15.308646
 H  -10.348656  -31.576241   15.675894
 H   -7.706479  -33.697475   17.036711
 H  -10.339593  -30.442990   17.937148
 H   -7.242343  -33.989530   19.444079
 H   -9.880041  -30.731262   20.341577
 H   -8.325154  -32.504572   21.109910
 H   -9.022032  -30.832655   11.455568
