17 
3u0d_ligand_aiqm1.xyz
 O   17.371400   22.201198    5.983943
 C   18.024754   21.674238    5.121040
 O   18.981928   22.355820    4.476148
 C   17.800141   20.240737    4.729754
 C   16.795004   19.542319    5.414591
 C   16.515523   18.218755    5.123870
 C   18.516754   19.569595    3.743517
 O   19.507065   20.196755    3.043364
 C   18.235004   18.233058    3.449535
 C   17.242120   17.555243    4.131150
 O   19.016074   17.693966    2.456517
 H   19.406152   21.786680    3.818953
 H   16.251972   20.082888    6.175564
 H   15.738803   17.693380    5.659045
 H   19.879499   19.572052    2.413497
 H   17.032835   16.517947    3.893877
 H   18.765573   16.779771    2.313434
