17 
3u0d_ligand_xtb.xyz
 O   17.354394   22.188632    5.993660
 C   18.012515   21.670234    5.130179
 O   18.964043   22.352649    4.490037
 C   17.800504   20.243072    4.730245
 C   16.800730   19.541759    5.408802
 C   16.525774   18.224662    5.117450
 C   18.529307   19.584944    3.737919
 O   19.521357   20.202538    3.029750
 C   18.242528   18.242895    3.447714
 C   17.249671   17.569099    4.131493
 O   19.003572   17.668064    2.459006
 H   19.413774   21.809374    3.820424
 H   16.253877   20.075160    6.170210
 H   15.751001   17.697205    5.650419
 H   19.880767   19.556875    2.403414
 H   17.043639   16.534792    3.893077
 H   18.733148   16.752445    2.334001
