55 
3u3u_ligand_xtb.xyz
 O   -4.842489    1.806759    5.604157
 C   -5.774896    1.381922    4.978538
 O   -6.971152    1.151398    5.540546
 C   -5.777703    1.034768    3.512705
 C   -4.476689    1.439831    2.827041
 C   -4.468831    1.017274    1.362783
 C   -3.237536    1.501359    0.593951
 O   -3.519919    1.328097   -0.779318
 C   -1.959054    0.734081    0.985922
 C   -0.780314    1.292917    0.262030
 C   -0.191684    0.707349   -0.785903
 C    0.918427    1.269183   -1.502862
 C    1.547912    0.642304   -2.512230
 C    2.670646    1.202426   -3.212507
 C    3.430078    0.592180   -4.129003
 C    3.324331   -0.827830   -4.595159
 C    4.557197   -1.568089   -4.151647
 C    4.670888   -2.335717   -3.077875
 C    3.603326   -2.631684   -2.071329
 C    3.686377   -1.652240   -0.893879
 C    2.572682   -1.882538    0.123176
 C    2.609694   -0.854964    1.251072
 C    1.487234   -1.076592    2.256930
 H   -6.949310    1.372729    6.484923
 H   -5.935538   -0.043529    3.431223
 H   -6.637834    1.521715    3.049503
 H   -4.356772    2.522208    2.900735
 H   -3.644998    0.981583    3.363542
 H   -5.341691    1.432325    0.855180
 H   -4.526849   -0.069599    1.281496
 H   -3.082848    2.574446    0.802791
 H   -2.699788    1.445806   -1.275163
 H   -2.099769   -0.318595    0.731104
 H   -1.811455    0.824900    2.062748
 H   -0.431315    2.259135    0.603486
 H   -0.544367   -0.260203   -1.124184
 H    1.256905    2.247290   -1.183931
 H    1.202616   -0.337564   -2.810114
 H    2.912097    2.225325   -2.947207
 H    4.252986    1.142652   -4.567411
 H    3.279456   -0.839449   -5.688474
 H    2.426699   -1.303595   -4.207776
 H    5.428189   -1.405754   -4.773698
 H    5.634981   -2.778830   -2.861796
 H    2.613604   -2.557160   -2.523251
 H    3.725478   -3.651566   -1.698895
 H    4.657392   -1.757757   -0.404588
 H    3.617495   -0.632671   -1.278277
 H    1.605900   -1.817489   -0.380782
 H    2.661614   -2.887764    0.542796
 H    3.573971   -0.911829    1.761239
 H    2.517719    0.145389    0.822167
 H    1.563010   -2.065896    2.703337
 H    0.519951   -0.992044    1.767218
 H    1.533744   -0.336602    3.052420
