55 
3u3u_ligand_aiqm1.xyz
 O   -4.269452    1.980831    5.660650
 C   -5.191004    1.385721    5.164567
 O   -6.257566    0.964642    5.880862
 C   -5.333199    1.008246    3.714678
 C   -4.157834    1.465360    2.862931
 C   -4.344037    1.073729    1.403549
 C   -3.264323    1.598003    0.473465
 O   -3.717835    1.303602   -0.845482
 C   -1.888406    0.982968    0.721955
 C   -0.862719    1.542825   -0.218120
 C   -0.222293    0.836186   -1.157949
 C    0.767773    1.410853   -2.061281
 C    1.501630    0.693118   -2.926986
 C    2.518374    1.289831   -3.788074
 C    3.441982    0.625964   -4.499075
 C    3.656734   -0.865735   -4.531435
 C    4.880342   -1.222685   -3.727359
 C    4.915695   -1.873622   -2.558570
 C    3.745192   -2.408034   -1.784817
 C    3.453851   -1.581002   -0.532553
 C    2.282436   -2.123552    0.277397
 C    1.915788   -1.244857    1.467579
 C    0.716946   -1.780956    2.241076
 H   -6.097535    1.240476    6.792049
 H   -5.455384   -0.077074    3.668286
 H   -6.273164    1.435906    3.355299
 H   -4.046121    2.549309    2.949129
 H   -3.236760    1.035499    3.265735
 H   -5.300333    1.458319    1.040497
 H   -4.385209   -0.017077    1.303257
 H   -3.179853    2.691553    0.591804
 H   -2.969027    1.426411   -1.436377
 H   -1.960461   -0.104023    0.595229
 H   -1.581396    1.179517    1.753553
 H   -0.662848    2.609937   -0.139684
 H   -0.412339   -0.232566   -1.254647
 H    0.921053    2.485015   -1.992918
 H    1.356124   -0.384289   -2.973124
 H    2.523838    2.374762   -3.822286
 H    4.155313    1.215492   -5.067612
 H    3.804567   -1.180737   -5.567712
 H    2.778437   -1.397837   -4.166966
 H    5.822042   -0.868258   -4.136635
 H    5.887129   -2.008507   -2.090284
 H    2.849656   -2.443700   -2.412860
 H    3.956299   -3.440880   -1.491141
 H    4.349038   -1.553277    0.097438
 H    3.245028   -0.545735   -0.819039
 H    1.409828   -2.224396   -0.379561
 H    2.519402   -3.134478    0.629639
 H    2.780422   -1.159956    2.131462
 H    1.695291   -0.234254    1.113497
 H    0.909587   -2.787699    2.617413
 H   -0.165173   -1.826869    1.596502
 H    0.474274   -1.142220    3.090546
