65 
3u7k_ligand_xtb.xyz
 C   -0.883069   -0.515264    0.169339
 N    1.384202   -1.022986   -0.425791
 O   -0.734426   -0.930838    1.309805
 C    0.027379   -1.062129   -0.937914
 C   -0.375636   -2.498290   -1.362246
 C    0.440580   -2.879390   -2.599661
 C   -0.104203   -3.502150   -0.239346
 C   -1.867427   -2.512439   -1.704629
 C    2.143406    0.090614   -0.655917
 O    1.812874    0.940947   -1.473294
 N    3.302086    0.112990    0.056651
 C    4.329825    1.060692    0.032051
 C    4.281302    2.239830   -0.692994
 C    5.344564    3.127414   -0.649507
 C    6.456335    2.842734    0.116531
 C    6.518230    1.666179    0.850526
 C    5.464148    0.771302    0.816222
 O    5.418843   -0.420637    1.503135
 C    6.512616   -0.759577    2.319586
 N   -1.809886    0.421674   -0.116050
 C   -2.016285    1.110519   -1.371080
 C   -1.571108    2.571542   -1.252515
 O   -2.353501    3.499620   -1.091001
 N   -0.256441    2.768196   -1.312362
 O    0.203484    4.078772   -1.164858
 C   -2.638246    0.889041    0.992228
 C   -3.801125   -0.059487    1.283356
 C   -4.586934    0.367471    2.537356
 C   -6.069049    0.075674    2.240585
 C   -6.076073   -0.683636    0.912163
 C   -4.861089   -0.122895    0.181169
 H    1.501594   -1.513823    0.449136
 H    0.034443   -0.427016   -1.824124
 H    0.185587   -2.241930   -3.443501
 H    0.241857   -3.911781   -2.876850
 H    1.503770   -2.772341   -2.399147
 H   -0.510200   -3.141854    0.702358
 H   -0.572349   -4.454874   -0.475575
 H    0.963344   -3.672462   -0.121858
 H   -2.465288   -2.302746   -0.821057
 H   -2.102011   -1.773727   -2.468094
 H   -2.150476   -3.491934   -2.083241
 H    3.498296   -0.665514    0.670884
 H    3.411857    2.457468   -1.288951
 H    5.294071    4.042819   -1.217795
 H    7.286943    3.530934    0.153341
 H    7.394903    1.461109    1.444088
 H    6.260013   -1.720237    2.766366
 H    6.665048   -0.021011    3.112585
 H    7.432196   -0.863426    1.735335
 H   -1.482659    0.629472   -2.186875
 H   -3.085521    1.113478   -1.601089
 H    0.503989    2.091978   -1.422108
 H   -0.621272    4.597323   -1.060509
 H   -3.011634    1.884439    0.749877
 H   -2.003905    0.948767    1.881210
 H   -3.387498   -1.059903    1.439082
 H   -4.237306   -0.175816    3.413652
 H   -4.438526    1.430637    2.727469
 H   -6.620646    1.009826    2.132137
 H   -6.540101   -0.498429    3.037000
 H   -5.938066   -1.751927    1.087333
 H   -7.003404   -0.543956    0.358369
 H   -5.083172    0.883998   -0.178014
 H   -4.559250   -0.742635   -0.662969
