32 
3u9q_ligand_xtb.xyz
 C    3.304573    3.951628   20.181615
 O    2.172323    4.199990   19.894474
 C    3.741609    2.826479   21.099893
 C    2.552762    2.027999   21.627748
 C    2.991947    0.896350   22.552484
 C    1.800945    0.099322   23.078361
 C    2.233118   -1.034718   24.004901
 C    1.041073   -1.832701   24.527809
 C    1.478244   -2.960661   25.459919
 C    0.322290   -3.848855   25.921281
 C   -0.658832   -3.129525   26.839620
 O    4.318670    4.691506   19.684028
 H    4.303605    3.259366   21.933803
 H    4.418561    2.169606   20.544141
 H    1.996740    1.621041   20.781839
 H    1.882065    2.703487   22.160864
 H    3.548157    1.310890   23.397221
 H    3.663880    0.224278   22.012473
 H    1.244930   -0.315266   22.234677
 H    1.128884    0.770709   23.617274
 H    2.787360   -0.619598   24.850330
 H    2.908135   -1.704250   23.465952
 H    0.492492   -2.255883   23.682935
 H    0.367909   -1.156116   25.056443
 H    1.975339   -2.534413   26.334661
 H    2.209299   -3.582752   24.936896
 H    0.736132   -4.708880   26.453522
 H   -0.211120   -4.228115   25.046619
 H   -0.138243   -2.709680   27.697800
 H   -1.165858   -2.323716   26.315636
 H   -1.413444   -3.823555   27.202999
 H    5.184356    4.391533   19.989881
