44 
3uev_ligand_ani-2x.xyz
 C   -0.779853    4.631547   19.064387
 O   -0.271236    5.411226   18.303148
 O   -1.389976    3.520701   18.583168
 C   -0.839082    4.814832   20.572741
 C   -2.278546    5.004936   21.080013
 C   -3.082963    6.047217   20.294009
 C   -2.413008    7.418344   20.204612
 C   -3.296484    8.458486   19.518397
 C   -2.637839    9.833253   19.421052
 C   -3.513942   10.875963   18.728537
 C   -2.852426   12.249398   18.627804
 C   -3.728792   13.292275   17.936062
 C   -3.067447   14.665636   17.835426
 C   -3.943764   15.708074   17.143943
 C   -3.284769   17.082872   17.041829
 C   -4.171590   18.114606   16.348721
 H   -1.760184    3.007012   19.314057
 H   -0.228515    5.687819   20.816118
 H   -0.373980    3.950040   21.065943
 H   -2.233586    5.291887   22.137848
 H   -2.809991    4.044162   21.051512
 H   -4.068437    6.157280   20.766711
 H   -3.271092    5.674353   19.276487
 H   -1.468039    7.335866   19.651369
 H   -2.155523    7.769015   21.215828
 H   -4.250199    8.548865   20.060598
 H   -3.551325    8.105025   18.507799
 H   -1.684786    9.741364   18.878655
 H   -2.381340   10.186494   20.431203
 H   -4.466323   10.970060   19.271698
 H   -3.772472   10.521656   17.719276
 H   -1.900351   12.155827   18.083992
 H   -2.593415   12.603444   19.637026
 H   -4.680920   13.385881   18.479806
 H   -3.987750   12.938266   16.926816
 H   -2.115124   14.572113   17.291900
 H   -2.808070   15.019569   18.844657
 H   -4.896012   15.801640   17.687285
 H   -4.203222   15.354245   16.134865
 H   -2.334774   16.987196   16.497881
 H   -3.027730   17.434687   18.050631
 H   -4.418254   17.798059   15.328370
 H   -5.115406   18.248244   16.890490
 H   -3.679463   19.090767   16.287031
