44 
3uev_ligand_xtb.xyz
 C   -0.820463    4.473940   19.066625
 O   -0.259135    5.118934   18.230621
 O   -1.486662    3.351271   18.738031
 C   -0.838758    4.824720   20.542772
 C   -2.260801    5.073315   21.063969
 C   -3.039270    6.087717   20.223385
 C   -2.382697    7.465680   20.176991
 C   -3.276091    8.490078   19.481640
 C   -2.616323    9.864624   19.407187
 C   -3.506101   10.891133   18.710760
 C   -2.845634   12.265403   18.634769
 C   -3.733894   13.291871   17.936177
 C   -3.073133   14.666038   17.859501
 C   -3.960745   15.692381   17.159997
 C   -3.300875   17.066953   17.081889
 C   -4.192299   18.085857   16.382596
 H   -1.902228    2.935952   19.504871
 H   -0.226807    5.715039   20.681306
 H   -0.379267    4.004466   21.102112
 H   -2.190225    5.433394   22.092621
 H   -2.823313    4.134310   21.089494
 H   -4.042610    6.184782   20.646256
 H   -3.147265    5.711782   19.203256
 H   -1.437671    7.401899   19.636075
 H   -2.171387    7.802653   21.195122
 H   -4.224040    8.572665   20.019681
 H   -3.498742    8.142543   18.470418
 H   -1.671401    9.780135   18.866002
 H   -2.388263   10.211703   20.418083
 H   -4.452566   10.974952   19.250667
 H   -3.733163   10.543840   17.700189
 H   -1.899358   12.180715   18.095416
 H   -2.618445   12.613290   19.645449
 H   -4.680715   13.376303   18.475208
 H   -3.960595   12.943760   16.925635
 H   -2.126284   14.581055   17.320819
 H   -2.846268   15.014242   18.870184
 H   -4.907560   15.777724   17.698893
 H   -4.187347   15.344038   16.149417
 H   -2.354682   16.981956   16.542451
 H   -3.074411   17.415769   18.092179
 H   -4.413253   17.765301   15.366708
 H   -5.133325   18.199402   16.916702
 H   -3.703927   19.056614   16.337577
