63 
3uih_ligand_ani-2x.xyz
 N   -1.957650   -0.781945   -2.030100
 C   -3.158383   -0.044601   -1.499047
 C   -2.588108    0.961459   -0.488253
 O   -2.059133    1.999485   -0.888525
 C   -4.206380   -1.003738   -0.958834
 N   -2.629844    0.608754    0.817480
 C   -1.628179    1.047847    1.786385
 C   -1.232647   -0.240255    2.526899
 O   -2.114456   -0.974408    2.961493
 C   -2.155386    2.149439    2.740060
 C   -3.474251    1.781888    3.420697
 C   -2.304993    3.463400    1.969419
 N    0.079665   -0.581436    2.660744
 C    1.205293   -0.015704    1.936768
 C    1.094709   -0.210793    0.407627
 O    0.142542   -0.744605   -0.150286
 C    2.401604   -0.772309    2.540030
 C    1.822623   -2.160687    2.811335
 C    0.406359   -1.859807    3.304847
 N    2.160793    0.283121   -0.286759
 C    2.158352    0.407309   -1.743428
 C    0.845869    1.080165   -2.173650
 O    0.569640    2.157976   -1.451527
 C    2.377501   -0.923878   -2.492888
 C    3.460413   -1.801750   -1.847879
 C    2.679527   -0.659894   -3.969519
 C    4.855389   -1.179787   -1.807060
 O    0.120982    0.666514   -3.058449
 H   -1.353942   -1.114431   -1.249292
 H   -1.391724   -0.120372   -2.597363
 H   -2.226413   -1.582695   -2.628526
 H   -3.574386    0.559243   -2.306883
 H   -3.768509   -1.725674   -0.260384
 H   -4.658747   -1.566714   -1.780865
 H   -5.007951   -0.462409   -0.449634
 H   -3.075450   -0.260847    1.086421
 H   -0.791519    1.470180    1.220875
 H   -1.385548    2.284937    3.517199
 H   -3.402277    0.832507    3.958021
 H   -4.274329    1.694174    2.677400
 H   -3.759925    2.565975    4.130735
 H   -2.626034    4.268856    2.637798
 H   -3.050650    3.360556    1.174139
 H   -1.361222    3.763881    1.500589
 H    1.287431    1.063580    2.130156
 H    2.689319   -0.285554    3.476794
 H    3.274153   -0.787952    1.881391
 H    2.410907   -2.733431    3.533330
 H    1.777417   -2.733751    1.877204
 H   -0.331674   -2.612093    3.013208
 H    0.354043   -1.749248    4.394873
 H    2.773099    0.906965    0.214772
 H    2.963016    1.109055   -1.993473
 H   -0.390769    2.341814   -1.559923
 H    1.426524   -1.464501   -2.419722
 H    3.149852   -2.073189   -0.831959
 H    3.505441   -2.742219   -2.412237
 H    1.857632   -0.128958   -4.451056
 H    3.588280   -0.056487   -4.085894
 H    2.837333   -1.605185   -4.501169
 H    4.862823   -0.238337   -1.247226
 H    5.565552   -1.855762   -1.319394
 H    5.236400   -0.974072   -2.813387
