63 
3uij_ligand_aiqm1.xyz
 N    2.084003    0.369508    2.505836
 C    3.322316    0.394053    1.627163
 C    2.751447    0.676962    0.230739
 O    2.154530    1.734587    0.092703
 C    4.116587   -0.880457    1.795677
 N    2.852168   -0.265387   -0.695440
 C    1.849598   -0.348917   -1.769701
 C    1.344051   -1.794667   -1.665126
 O    2.163049   -2.701454   -1.614683
 C    2.420001   -0.019196   -3.158230
 C    1.308913   -0.103394   -4.201346
 C    3.040102    1.373861   -3.159840
 N    0.015820   -2.003108   -1.585700
 C   -1.001057   -0.983262   -1.432432
 C   -0.906452   -0.223741   -0.094563
 O   -0.007100   -0.391368    0.733086
 C   -2.300955   -1.793135   -1.585388
 C   -1.938588   -3.173476   -1.037560
 C   -0.511206   -3.379475   -1.535329
 N   -1.867618    0.701928    0.064893
 C   -1.906151    1.646782    1.183534
 C   -0.541383    2.342948    1.242104
 O    0.207145    2.307766    2.196370
 C   -2.303473    1.006390    2.524490
 C   -3.544170    0.109190    2.382720
 C   -2.526824    2.093957    3.577090
 C   -4.790986    0.808784    1.843710
 O   -0.254917    2.954720    0.102949
 H    2.319807    0.159352    3.470995
 H    1.421527   -0.325314    2.144538
 H    1.592810    1.279054    2.442725
 H    3.909090    1.255265    1.923597
 H    3.539637   -1.764783    1.531370
 H    4.989677   -0.845700    1.153064
 H    4.471047   -0.992698    2.817578
 H    3.315648   -1.142106   -0.502844
 H    1.069617    0.372870   -1.538898
 H    3.187821   -0.760137   -3.387835
 H    1.706169    0.124402   -5.187470
 H    0.847685   -1.092477   -4.244018
 H    0.529799    0.633735   -3.977720
 H    3.390011    1.627595   -4.158810
 H    3.884966    1.448355   -2.473054
 H    2.297085    2.117909   -2.860986
 H   -0.919864   -0.223193   -2.210332
 H   -2.534608   -1.857038   -2.645639
 H   -3.150481   -1.341693   -1.075329
 H   -2.612300   -3.946047   -1.394387
 H   -1.963990   -3.167585    0.052822
 H   -0.477150   -3.826652   -2.528642
 H    0.109268   -3.979578   -0.873994
 H   -2.529761    0.824094   -0.682147
 H   -2.632411    2.412468    0.916865
 H   -1.467822    0.371479    2.837744
 H   -3.768911   -0.293990    3.371613
 H   -3.306272   -0.752252    1.749236
 H   -1.616924    2.661549    3.768094
 H   -3.301793    2.792306    3.258070
 H   -2.854264    1.645724    4.513682
 H   -5.067538    1.664198    2.458150
 H   -4.660485    1.167761    0.818253
 H   -5.636803    0.124088    1.841350
 H    0.690761    3.168440    0.104231
