63 
3uij_ligand_xtb.xyz
 N    2.156277    0.192659    2.381716
 C    3.383869    0.549625    1.607303
 C    2.814524    0.922228    0.215806
 O    2.351629    2.039182    0.053885
 C    4.384679   -0.589644    1.655437
 N    2.776116   -0.066780   -0.662646
 C    1.817786   -0.199133   -1.741874
 C    1.231919   -1.600473   -1.477357
 O    2.011430   -2.485814   -1.160381
 C    2.499343   -0.179769   -3.124353
 C    1.466819   -0.396114   -4.226960
 C    3.232162    1.142761   -3.326587
 N   -0.081460   -1.819950   -1.631309
 C   -1.124296   -0.821467   -1.528861
 C   -0.993318   -0.091369   -0.180212
 O   -0.030327   -0.260297    0.558835
 C   -2.417080   -1.640366   -1.640838
 C   -2.040341   -2.952376   -0.956573
 C   -0.609957   -3.169148   -1.431889
 N   -1.976998    0.768944    0.095502
 C   -1.951776    1.607368    1.289434
 C   -0.508470    2.102404    1.391794
 O    0.211179    1.945097    2.358498
 C   -2.424340    0.870974    2.555414
 C   -3.700565    0.057188    2.294650
 C   -2.607284    1.872987    3.692366
 C   -4.901905    0.872300    1.828341
 O   -0.145766    2.697493    0.288536
 H    2.383720   -0.152600    3.317632
 H    1.600334   -0.510648    1.868880
 H    1.495232    1.027816    2.459026
 H    3.808903    1.456338    2.048419
 H    3.934741   -1.539356    1.372926
 H    5.216975   -0.385993    0.987391
 H    4.788685   -0.691667    2.660639
 H    3.212556   -0.965241   -0.469833
 H    1.095049    0.614046   -1.666496
 H    3.221734   -1.002128   -3.147666
 H    1.959690   -0.397874   -5.195077
 H    0.955603   -1.348124   -4.106444
 H    0.730648    0.405577   -4.225830
 H    3.728068    1.147013   -4.292980
 H    3.983569    1.297259   -2.556624
 H    2.533044    1.975334   -3.294747
 H   -1.044979   -0.073756   -2.325507
 H   -2.641721   -1.817756   -2.692734
 H   -3.275272   -1.156958   -1.179157
 H   -2.695484   -3.773309   -1.234454
 H   -2.068089   -2.833302    0.127704
 H   -0.581625   -3.700643   -2.387509
 H    0.015142   -3.708509   -0.719011
 H   -2.742350    0.882879   -0.549342
 H   -2.588400    2.475506    1.099492
 H   -1.635753    0.165227    2.838484
 H   -3.964300   -0.449005    3.224385
 H   -3.483141   -0.720055    1.557499
 H   -1.664050    2.355354    3.931206
 H   -3.326686    2.641480    3.424366
 H   -2.964950    1.361772    4.581581
 H   -5.183526    1.611071    2.572222
 H   -4.707057    1.384951    0.888814
 H   -5.752303    0.211974    1.678717
 H    0.832045    2.844615    0.225952
