38 
3uil_ligand_aiqm1.xyz
 O  -32.484659  -19.703657  -42.310847
 O  -34.023740  -18.789518  -43.612391
 C  -33.631319  -19.005365  -42.499356
 C  -34.318875  -18.520609  -41.235971
 C  -34.631530  -19.604942  -40.199279
 C  -35.728161  -20.589424  -40.606984
 C  -35.363464  -21.511675  -41.767965
 C  -36.469316  -22.508532  -42.112377
 C  -36.714707  -23.561716  -41.035061
 C  -37.715722  -24.638069  -41.449182
 C  -39.140092  -24.129161  -41.641280
 C  -40.113299  -25.248811  -41.991401
 C  -41.543224  -24.780318  -42.254081
 C  -42.226454  -24.191278  -41.023760
 H  -32.320946  -19.799362  -41.367936
 H  -35.237703  -18.024844  -41.544811
 H  -33.667175  -17.760886  -40.790994
 H  -34.936910  -19.101833  -39.280956
 H  -33.719857  -20.160645  -39.942778
 H  -36.630591  -20.027554  -40.866990
 H  -35.983112  -21.192269  -39.732516
 H  -34.444288  -22.058139  -41.522863
 H  -35.141678  -20.917626  -42.656680
 H  -36.203937  -23.015758  -43.043500
 H  -37.393537  -21.955988  -42.314513
 H  -37.064684  -23.081149  -40.112702
 H  -35.761239  -24.039636  -40.788287
 H  -37.724063  -25.427647  -40.691604
 H  -37.374616  -25.108841  -42.379491
 H  -39.161553  -23.373528  -42.434072
 H  -39.469303  -23.624526  -40.725749
 H  -40.119571  -25.985941  -41.178854
 H  -39.741531  -25.771771  -42.877419
 H  -42.128762  -25.627981  -42.618625
 H  -41.538320  -24.039946  -43.060921
 H  -42.232245  -24.909881  -40.201637
 H  -41.718110  -23.291865  -40.672682
 H  -43.261006  -23.921509  -41.240385
