38 
3uil_ligand_dft.xyz
 O    4.705292    1.037593    0.491077
 O    4.338218   -0.624070    1.905006
 C    4.380219   -0.247240    0.764438
 C    4.131862   -1.143891   -0.439653
 C    3.168730   -0.613557   -1.514089
 C    1.694918   -0.552691   -1.098985
 C    1.377880    0.425646    0.035584
 C   -0.118337    0.541328    0.345956
 C   -0.953392    1.151619   -0.783687
 C   -2.392600    1.483919   -0.378331
 C   -3.224442    0.268395    0.036133
 C   -4.688391    0.621553    0.305667
 C   -5.529733   -0.541066    0.841888
 C   -5.652754   -1.717744   -0.126824
 H    4.690753    1.189037   -0.463001
 H    3.770974   -2.097378   -0.046335
 H    5.111995   -1.335063   -0.897777
 H    3.260275   -1.270331   -2.386575
 H    3.484483    0.379858   -1.868951
 H    1.365774   -1.559802   -0.806826
 H    1.111932   -0.285697   -1.988516
 H    1.774303    1.420045   -0.215907
 H    1.892378    0.108809    0.949311
 H   -0.240350    1.158507    1.246087
 H   -0.506171   -0.453425    0.602533
 H   -0.978423    0.470218   -1.644827
 H   -0.460451    2.070236   -1.131212
 H   -2.891714    1.984277   -1.219264
 H   -2.378802    2.210586    0.446491
 H   -2.796522   -0.188143    0.939004
 H   -3.160790   -0.491878   -0.754446
 H   -5.144143    1.002349   -0.619797
 H   -4.724742    1.448625    1.027725
 H   -6.533278   -0.168273    1.081851
 H   -5.097789   -0.891765    1.788945
 H   -6.049172   -1.387697   -1.094577
 H   -4.684202   -2.195127   -0.309188
 H   -6.328161   -2.483774    0.268009
