38 
3uil_ligand_ani-2x.xyz
 O  -32.691574  -19.727046  -42.587346
 O  -34.261639  -18.505602  -43.558614
 C  -33.763565  -18.898198  -42.538703
 C  -34.246613  -18.520749  -41.143910
 C  -34.486732  -19.683078  -40.172887
 C  -35.640577  -20.624275  -40.537587
 C  -35.406997  -21.492684  -41.775020
 C  -36.544335  -22.476563  -42.058801
 C  -36.729516  -23.551386  -40.985071
 C  -37.716495  -24.654860  -41.377857
 C  -39.137469  -24.157171  -41.641970
 C  -40.112682  -25.295103  -41.944239
 C  -41.527986  -24.832721  -42.303101
 C  -42.235375  -24.083574  -41.174677
 H  -32.419281  -19.963236  -41.690455
 H  -35.165209  -17.945483  -41.278107
 H  -33.501371  -17.834931  -40.715952
 H  -34.695089  -19.245504  -39.190415
 H  -33.562512  -20.265931  -40.041020
 H  -36.554994  -20.031717  -40.683800
 H  -35.831866  -21.270689  -39.672137
 H  -34.466549  -22.050894  -41.654864
 H  -35.275909  -20.855268  -42.658384
 H  -36.347003  -22.969294  -43.021166
 H  -37.479608  -21.913686  -42.188975
 H  -37.069830  -23.087947  -40.048456
 H  -35.754382  -24.007968  -40.766387
 H  -37.744939  -25.407532  -40.577759
 H  -37.345331  -25.173623  -42.274600
 H  -39.134871  -23.453621  -42.486410
 H  -39.484937  -23.588076  -40.768219
 H  -40.161106  -25.966879  -41.073951
 H  -39.711260  -25.895407  -42.772809
 H  -42.126243  -25.708241  -42.585777
 H  -41.484422  -24.192929  -43.195532
 H  -42.274735  -24.692274  -40.263407
 H  -41.722396  -23.148121  -40.926780
 H  -43.263904  -23.829939  -41.451753
