38 
3uil_ligand_xtb.xyz
 O  -32.513893  -19.587066  -42.545602
 O  -32.341277  -17.440016  -42.038037
 C  -32.994044  -18.442007  -42.028082
 C  -34.399030  -18.540973  -41.464183
 C  -34.529453  -19.630469  -40.381878
 C  -35.673253  -20.614667  -40.640166
 C  -35.408956  -21.548332  -41.821392
 C  -36.569016  -22.507470  -42.097842
 C  -36.776902  -23.538672  -40.989645
 C  -37.749478  -24.650367  -41.384799
 C  -39.181931  -24.159393  -41.584625
 C  -40.139007  -25.320382  -41.847519
 C  -41.564806  -24.870747  -42.168284
 C  -42.270543  -24.220524  -40.983931
 H  -33.152448  -20.311292  -42.472825
 H  -35.071111  -18.755170  -42.299485
 H  -34.668182  -17.562516  -41.068276
 H  -34.695122  -19.148063  -39.418121
 H  -33.595002  -20.192101  -40.292016
 H  -36.596694  -20.058609  -40.815470
 H  -35.813512  -21.214892  -39.740556
 H  -34.505208  -22.133366  -41.625589
 H  -35.244594  -20.957805  -42.728163
 H  -36.364122  -23.036854  -43.031747
 H  -37.481895  -21.926513  -42.238546
 H  -37.150673  -23.046900  -40.089833
 H  -35.812143  -23.991284  -40.746137
 H  -37.747070  -25.409241  -40.598301
 H  -37.398776  -25.128507  -42.302679
 H  -39.221940  -23.470659  -42.430443
 H  -39.496882  -23.616380  -40.691947
 H  -40.157515  -25.978877  -40.975783
 H  -39.758188  -25.902201  -42.690926
 H  -42.141035  -25.743509  -42.484716
 H  -41.541748  -24.170097  -43.006271
 H  -42.267814  -24.889604  -40.126045
 H  -41.782396  -23.292296  -40.698807
 H  -43.303641  -23.994380  -41.238232
