14 
3umq_ligand_xtb.xyz
 C  -34.733245  -25.456830  -44.679367
 C  -35.668352  -24.927561  -43.600315
 C  -35.433715  -23.443157  -43.331251
 C  -36.361722  -22.908045  -42.258107
 O  -36.196696  -21.596833  -41.979948
 O  -37.183943  -23.553671  -41.680588
 H  -34.884143  -24.922935  -45.615498
 H  -33.693743  -25.338061  -44.380262
 H  -34.919024  -26.512896  -44.855270
 H  -35.519712  -25.482063  -42.672841
 H  -36.706482  -25.071618  -43.902435
 H  -35.594944  -22.865952  -44.247530
 H  -34.400436  -23.279330  -43.008503
 H  -35.503046  -21.186847  -42.512585
