14 
3umq_ligand_ani-2x.xyz
 C  -34.741079  -25.466534  -44.684650
 C  -35.663414  -24.923987  -43.598593
 C  -35.434752  -23.440830  -43.332202
 C  -36.353503  -22.899948  -42.251537
 O  -36.201552  -21.585556  -41.964583
 O  -37.172948  -23.554769  -41.665412
 H  -34.895690  -24.938877  -45.633012
 H  -33.688310  -25.347478  -44.403287
 H  -34.920273  -26.531654  -44.862674
 H  -35.520646  -25.473097  -42.661612
 H  -36.713028  -25.071290  -43.874964
 H  -35.593311  -22.853588  -44.248832
 H  -34.393816  -23.258035  -43.026781
 H  -35.506876  -21.200158  -42.516361
