51 
3umw_ligand_xtb.xyz
 C   16.654724  -37.434801   -3.639977
 C   17.028764  -36.148227   -2.893849
 N   18.065697  -36.454379   -1.927409
 C   17.589163  -37.433774   -0.969141
 C   17.215428  -38.716054   -1.722460
 N   16.211178  -38.487019   -2.744700
 C   18.692826  -35.285605   -1.335581
 C   17.774447  -34.421365   -0.502046
 C   17.541053  -34.683013    0.835875
 C   16.640941  -33.938834    1.611223
 C   15.945708  -32.885800    1.040025
 C   16.170118  -32.588134   -0.289398
 C   17.069367  -33.336387   -1.057067
 O   17.337697  -33.074780   -2.361794
 C   16.705014  -31.986789   -2.992317
 O   18.150165  -35.665882    1.557197
 C   17.649115  -35.616306    2.834140
 C   16.663079  -34.509538    2.954240
 O   16.044130  -34.195324    3.951392
 C   17.952863  -36.457788    3.839917
 C   18.835129  -37.583080    3.875306
 N   18.754056  -38.399911    4.918462
 N   19.630105  -39.381809    4.741560
 C   20.328765  -39.242603    3.582545
 C   19.845347  -38.060212    2.970881
 C   20.418657  -37.635525    1.772662
 C   21.410641  -38.406901    1.212704
 C   21.859712  -39.585426    1.821124
 C   21.334200  -40.019566    3.015905
 H   15.864890  -37.233623   -4.366986
 H   17.535711  -37.807245   -4.169170
 H   17.412114  -35.405091   -3.594786
 H   16.123148  -35.734113   -2.409513
 H   18.382559  -37.644910   -0.250407
 H   16.703161  -37.072111   -0.412599
 H   18.106023  -39.107183   -2.221235
 H   16.843688  -39.467844   -1.023111
 H   15.341796  -38.201290   -2.298662
 H   19.513599  -35.643100   -0.708669
 H   19.103036  -34.686908   -2.151837
 H   15.248876  -32.312607    1.630524
 H   15.636703  -31.764016   -0.734342
 H   17.093335  -31.974845   -4.009705
 H   15.618651  -32.115041   -3.023569
 H   16.948374  -31.039429   -2.501881
 H   17.413729  -36.281171    4.761678
 H   19.708678  -40.112304    5.430839
 H   20.093295  -36.722200    1.305533
 H   21.861556  -38.098897    0.281097
 H   22.640727  -40.157460    1.343033
 H   21.684262  -40.918778    3.499348
