37 
3unj_ligand_dft.xyz
 C   -4.546747   -0.691815    0.075534
 C   -5.656538   -1.688737    0.133401
 C   -4.751360    0.690641    0.029805
 C   -3.677278    1.561783   -0.009945
 C   -2.358485    1.078168   -0.008776
 C   -2.148180   -0.307368    0.053072
 C   -3.234489   -1.166246    0.103524
 N   -1.344868    2.028890   -0.058830
 C    0.028574    1.926736   -0.081673
 N    0.640918    3.121124   -0.112519
 C    1.971566    3.064879   -0.151872
 C    2.701034    1.890110   -0.145858
 C    1.948097    0.706135   -0.096583
 N    0.606217    0.728885   -0.072887
 N    2.489325   -0.548168   -0.099959
 C    3.850188   -0.911889   -0.025613
 C    4.711623   -0.324937    0.904708
 C    6.042457   -0.723676    0.964808
 C    6.518531   -1.727535    0.126077
 C    5.652213   -2.330643   -0.781570
 C    4.326883   -1.919818   -0.866335
 O   -6.865959   -1.278496   -0.317926
 O   -5.522230   -2.811030    0.549686
 H   -5.752923    1.113388    0.067802
 H   -3.856628    2.633640   -0.032754
 H   -1.138544   -0.689635    0.065033
 H   -3.075644   -2.237941    0.164826
 H   -1.637555    2.995733   -0.076898
 H    2.484522    4.023402   -0.195425
 H    3.780535    1.890711   -0.205857
 H    1.810416   -1.286034   -0.222831
 H    4.332669    0.426756    1.589531
 H    6.705253   -0.258521    1.688194
 H    7.555727   -2.041903    0.183617
 H    6.010864   -3.117467   -1.438130
 H    3.655454   -2.372225   -1.590845
 H   -6.778325   -0.433541   -0.777195
