37 
3unj_ligand_xtb.xyz
 C   74.495611   63.860212   65.037550
 C   73.776673   62.562580   65.083290
 C   74.183192   64.952042   65.848491
 C   74.903214   66.122383   65.750146
 C   75.954111   66.245023   64.833952
 C   76.276280   65.148424   64.030347
 C   75.559665   63.978846   64.141600
 N   76.623917   67.446026   64.779594
 C   77.663792   67.866146   63.999780
 N   78.043579   69.120608   64.257239
 C   79.031565   69.596744   63.514619
 C   79.672078   68.857741   62.542312
 C   79.217470   67.541665   62.368072
 N   78.198488   67.064478   63.090514
 N   79.701297   66.667541   61.447315
 C   80.853071   66.749613   60.666708
 C   82.021890   67.352482   61.125363
 C   83.142212   67.394844   60.315813
 C   83.121392   66.827187   59.053374
 C   81.971766   66.196242   58.607019
 C   80.845984   66.154034   59.405916
 O   72.558438   62.560430   65.664450
 O   74.225807   61.547066   64.622425
 H   73.397517   64.897037   66.591653
 H   74.657976   66.958284   66.390069
 H   77.092256   65.239144   63.334798
 H   75.804065   63.123468   63.530425
 H   76.316892   68.166643   65.420720
 H   79.310140   70.623239   63.714517
 H   80.444447   69.281453   61.926197
 H   79.115492   65.855625   61.305713
 H   82.062953   67.759114   62.123680
 H   84.042503   67.865851   60.681697
 H   83.998997   66.864406   58.426528
 H   81.951023   65.735690   57.630620
 H   79.949449   65.660972   59.058279
 H   72.286799   63.442718   65.947814
