37 
3unj_ligand_ani-2x.xyz
 C   74.447123   63.866423   65.017454
 C   73.729137   62.556435   65.098828
 C   74.544969   64.755891   66.090278
 C   75.242978   65.942758   65.947586
 C   75.874015   66.262211   64.735279
 C   75.786716   65.370627   63.660744
 C   75.085579   64.184170   63.819468
 N   76.527210   67.500072   64.665538
 C   77.559395   67.935407   63.873400
 N   77.889713   69.223206   64.082064
 C   78.887177   69.672809   63.326130
 C   79.577668   68.901674   62.407274
 C   79.172030   67.566703   62.311957
 N   78.130984   67.095975   63.016573
 N   79.741445   66.644138   61.473389
 C   80.936551   66.720915   60.735851
 C   82.087100   67.346131   61.225109
 C   83.244946   67.370549   60.452325
 C   83.276917   66.778435   59.194308
 C   82.136447   66.139241   58.715837
 C   80.980324   66.099340   59.485193
 O   72.766519   62.442044   66.042046
 O   73.971928   61.627188   64.373605
 H   74.106581   64.521300   67.059660
 H   75.308446   66.635783   66.783444
 H   76.259456   65.606841   62.715319
 H   75.027664   63.470731   63.002659
 H   76.249641   68.192763   65.344597
 H   79.152645   70.719209   63.469328
 H   80.358021   69.319312   61.782970
 H   79.200080   65.793605   61.404110
 H   82.085851   67.792199   62.215602
 H   84.128955   67.865569   60.845339
 H   84.183514   66.808253   58.596516
 H   82.145274   65.661725   57.739290
 H   80.090071   65.595110   59.116095
 H   72.578931   63.301259   66.443435
