47 
3uo4_ligand_xtb.xyz
 N    3.057811   31.809002    8.734989
 N    3.827235   31.207154    6.572126
 N    5.555239   29.665725    6.311510
 N    2.097486   32.735995    6.912009
 C    3.972236   31.008500    9.267265
 C    3.046464   31.885000    7.403478
 C    4.732294   30.391844    7.110508
 C    4.857343   30.277094    8.509302
 C    5.600742   29.587574    4.920051
 C    4.495333   29.880486    4.128185
 C    4.588211   29.831599    2.749952
 C    5.781318   29.481513    2.141506
 C    6.874364   29.154512    2.923305
 C    6.800333   29.186639    4.309857
 C    7.984791   28.800573    5.103781
 C    1.848209   33.163325    5.626007
 C    0.667101   33.874754    5.387432
 C    0.351927   34.317411    4.121273
 C    1.214900   34.072851    3.052087
 C    2.412266   33.400327    3.303279
 C    2.729950   32.948968    4.564003
 C    0.950551   34.510512    1.658614
 C    7.930810   27.729139    5.993890
 C    9.049355   27.364951    6.722336
 C   10.234676   28.065133    6.573095
 C   10.300142   29.124494    5.683306
 C    9.184532   29.488610    4.951452
 O    1.805017   34.567367    0.814885
 O   -0.322722   34.839592    1.353712
 H    6.333118   29.223331    6.784390
 H    1.493054   33.097457    7.638517
 H    3.979538   30.964641   10.348572
 H    5.601006   29.636720    8.954132
 H    3.566460   30.145167    4.602798
 H    3.721718   30.068853    2.151482
 H    5.858449   29.453027    1.065461
 H    7.803697   28.854275    2.460914
 H   -0.004890   34.077599    6.209401
 H   -0.562449   34.882881    3.991494
 H    3.089434   33.240640    2.478242
 H    3.657265   32.434844    4.745215
 H    7.015798   27.159349    6.089243
 H    8.996529   26.528797    7.404469
 H   11.106309   27.781321    7.143707
 H   11.224907   29.668453    5.558769
 H    9.232585   30.317285    4.260088
 H   -0.923642   34.703616    2.097311
