37 
3uo5_ligand_ani-2x.xyz
 C   -2.293540  -33.598059    3.348604
 C   -2.078925  -33.873637    1.895979
 C   -1.324796  -33.831019    4.327147
 C   -1.599349  -33.575733    5.659760
 C   -2.842604  -33.058355    6.045415
 C   -3.834105  -32.869452    5.075010
 C   -3.550557  -33.142974    3.746289
 N   -3.056843  -32.798395    7.406489
 C   -3.837888  -31.821361    7.970280
 N   -3.785862  -31.740614    9.305765
 C   -4.554899  -30.781946    9.835219
 C   -5.345507  -29.927056    9.091602
 C   -5.303754  -30.105198    7.696684
 N   -4.550202  -31.051480    7.146050
 N   -6.055644  -29.308242    6.870881
 C   -6.176763  -29.375018    5.470466
 C   -7.381993  -28.957757    4.895279
 C   -7.560863  -29.003977    3.519358
 C   -6.534190  -29.445885    2.691102
 C   -5.326963  -29.832966    3.262117
 C   -5.133858  -29.796473    4.639452
 O   -0.799828  -33.896975    1.454540
 O   -2.982151  -34.071573    1.124758
 H   -0.353652  -34.253687    4.069384
 H   -0.835209  -33.755831    6.413007
 H   -4.818406  -32.518321    5.359711
 H   -4.307837  -33.011790    2.979130
 H   -2.449923  -33.260335    8.067715
 H   -4.528458  -30.703576   10.920303
 H   -5.957243  -29.157170    9.552379
 H   -6.718448  -28.701654    7.330316
 H   -8.189886  -28.607922    5.535263
 H   -8.509844  -28.687718    3.093125
 H   -6.672052  -29.479712    1.614483
 H   -4.512328  -30.169805    2.623993
 H   -4.183460  -30.088209    5.068588
 H   -0.196869  -33.579429    2.140456
