40 
3up7_ligand_aiqm1.xyz
 N   -2.395373  -32.467976    6.910877
 N   -3.908905  -30.708181    6.663587
 N   -3.139431  -31.472422    8.809571
 N   -5.423947  -28.935937    6.515287
 C   -2.737275  -32.866872    3.236616
 C   -1.575540  -33.581616    2.937966
 C   -0.724488  -33.933606    3.988150
 C   -1.018986  -33.552854    5.289810
 C   -2.171535  -32.808804    5.579274
 C   -3.046544  -32.485392    4.532121
 C   -1.341056  -33.935287    1.508799
 C   -3.194976  -31.501168    7.472155
 C   -4.660783  -29.783668    7.269928
 C   -4.701619  -29.661069    8.673603
 C   -3.911355  -30.538288    9.385126
 C   -5.567521  -28.842838    5.132631
 C   -4.576979  -29.266461    4.231220
 C   -4.763087  -29.113908    2.865326
 C   -5.917365  -28.522091    2.357921
 C   -6.899852  -28.101825    3.241032
 C   -6.753017  -28.261801    4.625290
 C   -7.829248  -27.783221    5.540364
 O   -7.654561  -27.411982    6.678616
 O   -9.081841  -27.772009    5.043436
 O   -2.172981  -33.797629    0.652623
 O   -0.119983  -34.423351    1.179695
 H   -1.820263  -32.928941    7.595068
 H   -6.071110  -28.355042    7.030338
 H   -3.400966  -32.618230    2.419265
 H    0.167854  -34.527835    3.822367
 H   -0.350256  -33.837030    6.094115
 H   -3.949599  -31.941181    4.743384
 H   -5.315844  -28.918639    9.160319
 H   -3.884911  -30.502731   10.465977
 H   -3.674607  -29.710411    4.613369
 H   -3.989043  -29.450633    2.188763
 H   -6.049337  -28.382650    1.294869
 H   -7.779403  -27.602475    2.847628
 H   -9.092919  -28.196986    4.180967
 H    0.461251  -34.399861    1.943946
