44 
3usx_ligand_xtb.xyz
 C  -34.024106  -16.941908  -41.560344
 O  -33.418090  -17.723764  -40.890887
 O  -33.416094  -15.837226  -42.042264
 C  -35.492974  -17.057767  -41.925266
 C  -36.077576  -18.418005  -41.548564
 C  -35.559099  -19.533026  -42.453634
 C  -36.126376  -20.892657  -42.052677
 C  -35.570794  -22.033357  -42.908159
 C  -34.119725  -22.411094  -42.577639
 C  -33.991806  -23.644617  -41.681511
 C  -34.542143  -23.434642  -40.272611
 C  -34.217208  -24.589236  -39.323745
 C  -34.921235  -25.893795  -39.691996
 C  -34.666752  -26.980914  -38.649715
 C  -35.253564  -28.339897  -39.032962
 C  -36.777773  -28.353067  -39.048642
 H  -34.009432  -15.281065  -42.563301
 H  -35.610046  -16.880631  -42.998798
 H  -36.022132  -16.261642  -41.391340
 H  -37.166992  -18.371375  -41.611591
 H  -35.804264  -18.639809  -40.515815
 H  -34.471021  -19.556309  -42.391291
 H  -35.832632  -19.320045  -43.490942
 H  -37.214280  -20.864861  -42.159789
 H  -35.901110  -21.075950  -41.002195
 H  -35.640805  -21.735308  -43.957088
 H  -36.203387  -22.914734  -42.783459
 H  -33.619223  -21.570006  -42.096025
 H  -33.584190  -22.618144  -43.506989
 H  -32.933185  -23.906686  -41.605917
 H  -34.506029  -24.481660  -42.158079
 H  -35.625377  -23.306650  -40.315243
 H  -34.110147  -22.518168  -39.863049
 H  -34.518498  -24.304200  -38.312218
 H  -33.136762  -24.752299  -39.310071
 H  -34.564554  -26.244340  -40.662139
 H  -35.993074  -25.705169  -39.774819
 H  -35.083991  -26.667225  -37.689672
 H  -33.587220  -27.091610  -38.518178
 H  -34.903007  -29.085312  -38.314765
 H  -34.878369  -28.629305  -40.017437
 H  -37.170300  -28.029485  -38.086872
 H  -37.166133  -27.692424  -39.819239
 H  -37.144925  -29.357516  -39.247966
