70 
3ut5_ligand_aiqm1.xyz
 O    1.021243   -2.788126   -1.352646
 C   -0.286103   -2.500375   -1.076515
 C   -0.833153   -2.795058    0.116977
 C   -1.134017   -1.923540   -2.167390
 O   -0.643870   -1.368474   -3.138284
 C   -2.599484   -1.967689   -1.958610
 C   -3.130938   -2.262402   -0.765203
 C   -2.298131   -2.611219    0.437790
 C   -2.514396   -1.556528    1.548815
 O   -1.809282   -1.902996    2.733188
 C   -1.952514   -0.193440    1.114683
 N   -1.385492    0.593392    2.253906
 C   -2.400968    1.245911    3.143717
 C   -2.989435    0.683378    0.385115
 O   -4.152886    0.651520    0.740968
 N   -2.531041    1.559829   -0.536407
 C   -1.376881    1.442130   -1.444171
 C   -0.100237    1.126072   -0.677439
 O    0.140983    1.626730    0.425304
 C   -1.246480    2.703189   -2.322917
 C   -0.191322    2.469345   -3.403115
 C   -0.965491    3.966793   -1.515833
 C    2.835978   -3.059223    0.913387
 C    3.225473   -2.539013   -0.465205
 C    2.111999   -1.808717   -1.227043
 C    2.580974   -1.452951   -2.632152
 N    0.685314    0.204570   -1.234546
 C    1.632656   -0.576223   -0.435819
 C    2.752981    0.334555    0.093257
 O    3.515368    0.924545   -0.644440
 N    2.775167    0.410975    1.449026
 C    3.392905    1.532973    2.126426
 C    2.381758    2.117139    3.085043
 O    1.301798    1.617757    3.312241
 O    2.824197    3.226726    3.668525
 H   -0.197053   -3.197269    0.898086
 H   -3.228534   -1.736653   -2.808617
 H   -4.204407   -2.253353   -0.624570
 H   -2.676717   -3.549707    0.844475
 H   -3.583181   -1.460228    1.746686
 H   -2.183787   -2.703819    3.095075
 H   -1.122447   -0.403791    0.447326
 H   -0.755300    1.306679    1.832952
 H   -0.819018   -0.037597    2.829156
 H   -3.113419    0.508484    3.494127
 H   -1.860200    1.675358    3.981392
 H   -2.916638    2.030422    2.603918
 H   -3.294850    2.113633   -0.899972
 H   -1.564569    0.612507   -2.129206
 H   -2.217624    2.806747   -2.815951
 H    0.817051    2.463783   -2.988309
 H   -0.354056    1.527235   -3.930742
 H   -0.238423    3.273661   -4.131589
 H   -0.834443    4.808195   -2.191461
 H   -0.053751    3.856688   -0.926565
 H   -1.784475    4.207995   -0.834459
 H    1.969515   -3.717421    0.841376
 H    3.656527   -3.628018    1.344599
 H    2.597244   -2.250853    1.610075
 H    3.526700   -3.376162   -1.092561
 H    4.080170   -1.863234   -0.408893
 H    3.312372   -0.648305   -2.586559
 H    1.756845   -1.163000   -3.282835
 H    3.044060   -2.333822   -3.069131
 H    0.429799   -0.149132   -2.147777
 H    1.091701   -0.957247    0.442455
 H    1.960856    0.056962    1.927223
 H    4.275044    1.239345    2.697245
 H    3.703592    2.279221    1.396377
 H    2.145544    3.531244    4.286116
