23 
3uug_ligand_xtb.xyz
 C   -0.840647   -0.922717   -1.146759
 C   -1.615380    0.121996   -0.317950
 C   -0.668105    1.260498    0.060510
 C    0.549799    0.683993    0.792656
 C    1.192134   -0.423121   -0.061225
 C    2.271171   -1.105688    0.778201
 O   -2.688202    0.651117   -1.056853
 O   -1.280580    2.196207    0.912117
 O    1.518075    1.667777    1.026036
 O    0.257515   -1.414237   -0.423162
 O    2.066337   -1.676420    1.809508
 O   -1.654504   -1.994287   -1.478988
 O    3.471198   -0.976862    0.227033
 H   -0.517192   -0.454845   -2.093714
 H   -1.984356   -0.362359    0.601836
 H   -0.332639    1.759011   -0.864462
 H    0.208576    0.239663    1.741391
 H    1.656738    0.026806   -0.949859
 H   -3.112392   -0.078394   -1.526994
 H   -2.141385    2.410685    0.532341
 H    1.064406    2.422272    1.424360
 H   -1.575473   -2.649025   -0.773411
 H    4.154305   -1.381971    0.787688
