17 
3uxk_ligand_aiqm1.xyz
 C   51.510408  -52.441057   17.799212
 C   50.213968  -52.217064   18.268727
 C   49.643500  -50.954376   18.145637
 C   50.361670  -49.919150   17.550170
 C   51.659428  -50.141268   17.090512
 C   52.234739  -51.398521   17.221195
 C   52.166993  -53.769010   17.906187
 O   53.370665  -53.953149   17.791081
 N   51.340051  -54.828457   18.196410
 O   51.971846  -56.068211   18.099701
 H   49.670354  -53.015484   18.757958
 H   48.643519  -50.776292   18.517228
 H   49.913763  -48.939025   17.452661
 H   52.221066  -49.334002   16.639726
 H   53.244161  -51.596201   16.887506
 H   50.446659  -54.860237   17.728511
 H   52.893012  -55.797596   17.919376
