17 
3uxk_ligand_ani-2x.xyz
 C   51.505147  -52.437393   17.814791
 C   50.210855  -52.205561   18.283036
 C   49.640345  -50.945534   18.140340
 C   50.359987  -49.916998   17.535489
 C   51.658209  -50.144614   17.083992
 C   52.232741  -51.401287   17.231232
 C   52.170092  -53.765711   17.935374
 O   53.383415  -53.930538   17.875963
 N   51.343157  -54.838190   18.151788
 O   51.964082  -56.080299   18.058718
 H   49.661357  -53.000607   18.781606
 H   48.629567  -50.767474   18.499012
 H   49.909800  -48.934205   17.421623
 H   52.223219  -49.340312   16.620032
 H   53.247825  -51.603969   16.901831
 H   50.457717  -54.867350   17.660582
 H   52.908286  -55.829057   17.976392
