36 
3uza_ligand_ani-2x.xyz
 N   50.186874   23.759775   30.896570
 N   49.122770   23.211373   31.431925
 C   47.902328   23.542073   31.014550
 C   47.761095   24.342215   29.842353
 N   48.823538   24.981335   29.366196
 C   49.994459   24.666532   29.925648
 N   44.862275   21.934905   33.581413
 C   45.979801   21.256044   33.304598
 C   46.982961   21.761985   32.479905
 C   46.811642   23.007984   31.887908
 C   45.649474   23.716227   32.191314
 C   44.702185   23.145595   33.038099
 C   44.142561   24.943388   27.619078
 C   44.389505   23.706564   28.207382
 C   45.557110   23.495766   28.929528
 C   46.494229   24.525230   29.080478
 C   46.253743   25.752404   28.455831
 C   45.079478   25.964792   27.744687
 N   51.108559   25.312826   29.473021
 C   43.433443   23.875785   33.378432
 C   46.114842   19.900495   33.945652
 H   47.895815   21.203463   32.299039
 H   45.460773   24.684086   31.735296
 H   43.226358   25.108726   27.058497
 H   43.666709   22.901515   28.105410
 H   45.730766   22.530262   29.399881
 H   47.000864   26.537418   28.533324
 H   44.900557   26.930563   27.278003
 H   51.985505   24.861585   29.686784
 H   51.023198   25.736630   28.562853
 H   42.561759   23.281648   33.085036
 H   43.369662   24.045945   34.458349
 H   43.384498   24.843001   32.870223
 H   46.050039   19.990440   35.034333
 H   45.303695   19.243933   33.615678
 H   47.069728   19.432791   33.688829
