14 
3uzj_ligand_ani-2x.xyz
 N   -0.440848   34.499629  -17.606476
 C   -1.246082   35.355525  -16.919687
 C   -2.463307   35.994534  -17.201036
 C   -2.961530   36.808804  -16.204228
 C   -2.285263   36.987887  -14.973783
 C   -1.091065   36.357517  -14.705296
 C   -0.568347   35.523711  -15.709795
 N    0.588164   34.766026  -15.746428
 N    0.644662   34.166664  -16.879285
 H   -0.554261   34.110123  -18.529388
 H   -2.983427   35.858249  -18.144507
 H   -3.901641   37.330062  -16.365324
 H   -2.723315   37.641181  -14.223308
 H   -0.564741   36.488088  -13.765461
