33 
3v1r_ligand_dft.xyz
 C   -1.678048   -0.421240   -0.588091
 O   -2.913608   -1.109684   -0.640410
 C   -0.667955   -1.439235   -0.022841
 O   -1.248669   -2.101651    1.079137
 C    0.666237   -0.870789    0.464026
 C    1.249836    0.306073   -0.340109
 C    0.684761    1.641362    0.177277
 C   -0.782373    1.925975   -0.155818
 C   -1.801913    0.861652    0.251428
 O   -3.121786    1.351057   -0.003896
 C    3.396414    0.389091    1.076014
 C    2.798199    0.325708   -0.333268
 C    3.392777   -0.846222   -1.119862
 H   -1.378545   -0.137597   -1.608674
 H   -3.592453   -0.424816   -0.531442
 H   -0.476558   -2.158504   -0.836658
 H   -2.169603   -2.252911    0.812326
 H    1.371730   -1.706751    0.502019
 H    0.520483   -0.562190    1.506182
 H    0.958354    0.200111   -1.396326
 H    1.278759    2.468445   -0.232319
 H    0.817261    1.681111    1.266560
 H   -1.066779    2.868427    0.330651
 H   -0.898102    2.091932   -1.234731
 H   -1.704798    0.599140    1.314788
 H   -3.358971    1.971993    0.693023
 H    3.142265   -0.505706    1.656173
 H    4.488986    0.449310    1.024611
 H    3.043225    1.263440    1.632242
 H    3.093400    1.245275   -0.859121
 H    3.211824   -1.806312   -0.623255
 H    2.966777   -0.905142   -2.127969
 H    4.477644   -0.731284   -1.219269
