33 
3v1r_ligand_aiqm1.xyz
 C   -2.048702    0.892518    0.114657
 O   -3.173359    1.708344   -0.183477
 C   -0.883571    1.560763   -0.619297
 O   -1.262239    1.815046   -1.966631
 C    0.411300    0.759821   -0.695395
 C    0.724799   -0.160425    0.493151
 C    0.041061   -1.526189    0.307564
 C   -1.467719   -1.544502    0.531974
 C   -2.287545   -0.561003   -0.294738
 O   -3.682390   -0.804189   -0.046131
 C    2.947179   -0.858230   -0.566163
 C    2.244802   -0.345955    0.691974
 C    2.921871    0.932984    1.186181
 H   -1.871332    0.915919    1.196509
 H   -3.947934    1.146456   -0.087740
 H   -0.714054    2.510861   -0.099247
 H   -2.155114    2.174243   -1.918015
 H    1.216516    1.484861   -0.849875
 H    0.380494    0.158575   -1.608982
 H    0.345670    0.299033    1.419135
 H    0.493110   -2.256962    0.985154
 H    0.252007   -1.883676   -0.706204
 H   -1.838980   -2.550689    0.318475
 H   -1.695969   -1.351750    1.585940
 H   -2.083286   -0.677919   -1.362747
 H   -3.951760   -1.562157   -0.565392
 H    2.906303   -0.117602   -1.367435
 H    4.000188   -1.057515   -0.357420
 H    2.500587   -1.780300   -0.941879
 H    2.370929   -1.104979    1.474577
 H    2.861792    1.729584    0.441317
 H    2.465839    1.303198    2.106255
 H    3.979606    0.751638    1.383609
