50 
3v2q_ligand_ani-2x.xyz
 C    1.805002   -0.323159   11.827172
 O    0.481741   -0.438767   12.096183
 O    2.553542    0.096955   12.667017
 C    2.242127   -0.769728   10.440900
 C    1.457227   -0.136562    9.287696
 C    1.994985   -0.527006    7.908101
 C    3.381701    0.031480    7.586254
 C    3.847942   -0.316535    6.173267
 C    5.228555    0.243741    5.838028
 C    5.691649   -0.098380    4.422753
 C    7.074176    0.459376    4.088639
 C    7.537297    0.117337    2.673501
 C    8.919846    0.675000    2.339391
 C    9.382877    0.333222    0.924146
 C   10.765342    0.890779    0.590165
 C   11.228102    0.548968   -0.824680
 C   12.610735    1.105399   -1.161560
 C   13.060432    0.756270   -2.578322
 H    0.018810   -0.803660   11.330131
 H    2.154572   -1.864954   10.388342
 H    3.304424   -0.531945   10.364698
 H    1.470424    0.955957    9.394109
 H    0.401125   -0.436249    9.342462
 H    1.289344   -0.174389    7.144035
 H    2.014835   -1.623416    7.823031
 H    4.120728   -0.343711    8.307834
 H    3.367561    1.125357    7.704628
 H    3.115813    0.061670    5.444069
 H    3.860142   -1.410204    6.053544
 H    5.963190   -0.139079    6.562100
 H    5.218234    1.336972    5.963060
 H    4.959263    0.286092    3.697006
 H    5.700142   -1.191609    4.297087
 H    7.806794    0.074790    4.814120
 H    7.065660    1.552561    4.214483
 H    6.804766    0.501959    1.947951
 H    7.545741   -0.975851    2.547688
 H    9.652479    0.290215    3.064751
 H    8.911478    1.768165    2.465425
 H    8.650340    0.718080    0.198727
 H    9.391222   -0.759937    0.798063
 H   11.497937    0.506252    1.315791
 H   10.757188    1.983964    0.716518
 H   10.495657    0.933353   -1.550301
 H   11.236215   -0.544052   -0.951140
 H   13.340625    0.719266   -0.436521
 H   12.599898    2.196997   -1.035791
 H   13.106381   -0.330117   -2.719074
 H   12.361182    1.156528   -3.321962
 H   14.052457    1.164807   -2.797117
