63 
3v3m_ligand_xtb.xyz
 O   -3.002015    1.814233   -0.813387
 C   -1.781110    1.692641   -0.908550
 C   -1.086747    2.227075   -2.083372
 C   -1.671232    2.796254   -3.189871
 C   -0.615645    3.174199   -4.043012
 C    0.530184    2.812920   -3.397682
 O    0.258630    2.242798   -2.219543
 N   -1.045212    1.091312    0.052339
 C    0.321798    0.735010   -0.099841
 C    1.315622    1.498398    0.496163
 C    2.634209    1.105254    0.397055
 C    3.000974   -0.052116   -0.286201
 C    4.465443   -0.455929   -0.334527
 C    5.272102    0.657903   -1.016947
 C    4.694727   -1.755880   -1.110101
 C    4.965666   -0.660569    1.102406
 C    1.992309   -0.794714   -0.887729
 C    0.666103   -0.411367   -0.796651
 C   -1.737294    0.606319    1.254774
 C   -2.261265   -0.826999    0.966892
 N   -3.354244   -0.794579    0.192483
 C   -4.021480   -1.969401   -0.370888
 C   -4.508114   -2.871582    0.765040
 C   -3.041195   -2.728476   -1.270735
 C   -5.205379   -1.456133   -1.188268
 O   -1.720765   -1.828450    1.387686
 C   -0.863702    0.688792    2.472174
 C   -1.095020    1.678098    3.421009
 C   -0.266722    1.766722    4.526997
 C    0.770035    0.853992    4.640384
 N    0.993355   -0.100030    3.753741
 C    0.200137   -0.184201    2.701897
 H   -2.722451    2.918934   -3.348615
 H   -0.695647    3.647993   -4.999498
 H    1.564124    2.906841   -3.666297
 H    1.050947    2.397032    1.033633
 H    3.386312    1.714174    0.874190
 H    4.909184    0.818715   -2.030177
 H    5.193525    1.595364   -0.473749
 H    6.322888    0.380864   -1.067133
 H    4.376100   -1.657743   -2.145447
 H    4.163385   -2.584472   -0.648437
 H    5.756100   -1.995519   -1.107963
 H    4.904139    0.257530    1.679369
 H    4.365321   -1.415479    1.604808
 H    6.002596   -0.989646    1.094043
 H    2.221956   -1.695974   -1.431544
 H   -0.106685   -1.009397   -1.257292
 H   -2.605927    1.264322    1.385796
 H   -3.644845    0.108760   -0.170724
 H   -3.662789   -3.201087    1.361942
 H   -5.197829   -2.328547    1.407149
 H   -5.016418   -3.742136    0.359563
 H   -2.188436   -3.060681   -0.684590
 H   -2.690833   -2.082811   -2.074439
 H   -3.525690   -3.597395   -1.707592
 H   -5.899456   -0.913520   -0.550606
 H   -5.733958   -2.288447   -1.645198
 H   -4.863463   -0.787700   -1.975818
 H   -1.913077    2.374361    3.291867
 H   -0.422320    2.525618    5.278439
 H    1.453037    0.882371    5.479594
 H    0.415758   -0.993520    2.021191
