45 
3v78_ligand_aiqm1.xyz
 C   -2.974972    0.949952    0.722388
 C   -3.929429   -0.023382    0.989005
 C   -3.673934   -1.347832    0.637139
 C   -2.454127   -1.676837    0.042741
 N   -0.255355   -1.044798   -0.751400
 C    0.893464   -0.150485   -0.707357
 C    1.477355    2.258790   -0.921414
 C    1.184733    3.621517   -0.862020
 C   -0.104486    4.008192   -0.490228
 C   -1.064087    3.053314   -0.175704
 C    0.514608    1.303965   -0.612305
 C   -0.773024    1.685439   -0.214959
 C   -1.757202    0.650916    0.117614
 C   -1.477387   -0.700447   -0.193622
 C    1.874214   -0.502878    0.416899
 C    3.243419   -0.570464    0.145639
 C    4.159910   -0.855711    1.154802
 C    3.714928   -1.080737    2.453588
 C    2.352304   -1.019020    2.734888
 C    1.437686   -0.732304    1.724959
 C    0.039265   -2.430805   -1.096235
 C   -0.537796   -2.839627   -2.449409
 N   -4.599781   -2.353509    0.936110
 N    2.140129    4.577964   -1.236434
 H   -3.195838    1.970473    1.005524
 H   -4.860815    0.244387    1.471269
 H   -2.281612   -2.707404   -0.230154
 H    1.447190   -0.292968   -1.645258
 H    2.473876    1.939549   -1.213185
 H   -0.361484    5.061595   -0.457495
 H   -2.055233    3.396067    0.088961
 H    3.595527   -0.396763   -0.866454
 H    5.216533   -0.903538    0.923962
 H    4.423061   -1.303969    3.240677
 H    2.004476   -1.194327    3.745303
 H    0.378838   -0.686429    1.946186
 H    1.124225   -2.534013   -1.121542
 H   -0.311999   -3.093322   -0.301626
 H   -0.308498   -3.885202   -2.665887
 H   -0.115145   -2.218147   -3.240612
 H   -1.620855   -2.715333   -2.469516
 H   -4.514126   -3.173015    0.354408
 H   -5.553763   -2.028656    0.964276
 H    3.089765    4.266004   -1.097501
 H    1.995542    5.473696   -0.795722
