37 
3v8s_ligand_xtb.xyz
 C  -43.597573  -58.164728   29.313733
 N  -41.107512  -60.080632   26.006641
 C  -41.925403  -59.340466   25.146023
 C  -43.984706  -58.361882   24.479702
 C  -41.978018  -57.958850   23.137364
 C  -41.294268  -58.742774   24.034354
 O  -42.619444  -60.992643   27.466964
 C  -41.478300  -60.737838   27.156849
 N  -40.397771  -61.153865   27.906565
 C  -40.606618  -61.407670   29.315070
 C  -40.469400  -60.119459   30.152137
 C  -41.383778  -59.066723   29.591225
 C  -40.920835  -58.163933   28.642486
 C  -41.786836  -57.278791   28.024605
 C  -43.130095  -57.283469   28.353509
 C  -42.731290  -59.050768   29.926047
 C  -43.274320  -59.158473   25.377241
 C  -43.336701  -57.768493   23.369069
 N  -44.293128  -57.063476   22.709149
 N  -45.486461  -57.163041   23.311208
 C  -45.331457  -57.926381   24.362102
 H  -44.645244  -58.171400   29.575424
 H  -40.121363  -60.032407   25.795875
 H  -41.480372  -57.508633   22.291972
 H  -40.235439  -58.909900   23.889542
 H  -39.498559  -60.752676   27.682242
 H  -41.619769  -61.802743   29.407978
 H  -39.888908  -62.160506   29.651048
 H  -40.727608  -60.346813   31.187009
 H  -39.432104  -59.775791   30.120779
 H  -39.870162  -58.152907   28.380444
 H  -41.414054  -56.593992   27.276220
 H  -43.810181  -56.606099   27.858841
 H  -43.104783  -59.750724   30.659104
 H  -43.755617  -59.613689   26.224655
 H  -44.199924  -56.517456   21.869167
 H  -46.160998  -58.147911   25.002658
