37 
3v8s_ligand_dft.xyz
 C  -41.481505  -57.445080   32.048209
 N  -42.367108  -58.982117   25.794549
 C  -42.863486  -58.909400   24.477177
 C  -44.056829  -59.699953   22.565198
 C  -42.981418  -57.502562   22.472507
 C  -42.557580  -57.718949   23.764531
 O  -43.046726  -61.085997   26.442073
 C  -42.483736  -60.031154   26.687156
 N  -41.862987  -59.776877   27.893093
 C  -42.038901  -60.699227   28.998508
 C  -40.870510  -60.590244   29.985221
 C  -40.726205  -59.194597   30.546910
 C  -39.793113  -58.300258   30.015612
 C  -39.702141  -56.994222   30.492314
 C  -40.546786  -56.563044   31.510247
 C  -41.569666  -58.747381   31.568353
 C  -43.615264  -59.908647   23.882506
 C  -43.742597  -58.515754   21.874757
 N  -44.314707  -58.638013   20.641525
 N  -44.970224  -59.808809   20.489844
 C  -44.826135  -60.454100   21.627775
 H  -42.141941  -57.117798   32.845884
 H  -41.756945  -58.225349   26.063172
 H  -42.732259  -56.584096   21.951027
 H  -41.968682  -56.948590   24.257853
 H  -41.727379  -58.811248   28.161205
 H  -42.987656  -60.512210   29.522863
 H  -42.093285  -61.704379   28.577380
 H  -41.041470  -61.306199   30.797288
 H  -39.948087  -60.886912   29.474811
 H  -39.127525  -58.635937   29.223680
 H  -38.965982  -56.315742   30.070836
 H  -40.475685  -55.546833   31.886117
 H  -42.301144  -59.431130   31.993311
 H  -43.842325  -60.816206   24.423819
 H  -44.301454  -57.986664   19.875313
 H  -45.269559  -61.432325   21.752376
