37 
3v8s_ligand_aiqm1.xyz
 C  -41.518079  -57.363086   31.857309
 N  -42.503650  -58.939214   25.851697
 C  -42.967271  -58.882777   24.522132
 C  -44.031809  -59.740763   22.565102
 C  -43.153837  -57.455068   22.539575
 C  -42.746734  -57.658586   23.840722
 O  -43.030810  -61.098502   26.433982
 C  -42.534807  -60.019357   26.711050
 N  -41.915562  -59.764587   27.906719
 C  -42.034477  -60.704496   29.008089
 C  -40.832808  -60.585322   29.942060
 C  -40.676514  -59.194230   30.503183
 C  -39.598363  -58.385690   30.134324
 C  -39.479935  -57.082206   30.614884
 C  -40.442378  -56.566298   31.476438
 C  -41.633499  -58.663339   31.374932
 C  -43.610113  -59.935827   23.894381
 C  -43.805128  -58.521078   21.905863
 N  -44.327729  -58.662039   20.653639
 N  -44.873644  -59.884274   20.461080
 C  -44.706061  -60.542174   21.592040
 H  -42.270112  -56.974716   32.531451
 H  -41.994508  -58.129529   26.160823
 H  -42.972816  -56.511473   22.042434
 H  -42.239200  -56.854588   24.364805
 H  -41.761223  -58.802935   28.163232
 H  -42.966177  -60.535026   29.566049
 H  -42.093277  -61.702027   28.578622
 H  -40.953158  -61.303839   30.755515
 H  -39.928792  -60.859223   29.392112
 H  -38.843090  -58.783253   29.465495
 H  -38.635078  -56.475205   30.315928
 H  -40.353825  -55.556047   31.851296
 H  -42.476178  -59.274375   31.678719
 H  -43.771442  -60.865230   24.418435
 H  -44.350328  -57.997152   19.904392
 H  -45.066589  -61.554468   21.676492
