80 
3vb4_ligand_aiqm1.xyz
 O    1.433605    1.627467   -0.744894
 C    2.501045    1.261461   -1.194833
 O    3.699554    1.442098   -0.640848
 C    3.824553    2.097203    0.660375
 C    3.286708    3.517516    0.579724
 C    3.108434    1.272311    1.715849
 C    5.327978    2.095188    0.890108
 N    2.622847    0.623974   -2.400489
 C    1.417283    0.051882   -2.971533
 C    0.831773   -1.035516   -2.058631
 O    1.492469   -1.567134   -1.171121
 C    1.733775   -0.523707   -4.346481
 N   -0.449619   -1.346913   -2.341028
 C   -1.317117   -2.176162   -1.509313
 C   -1.751980   -1.380077   -0.270586
 O   -2.924833   -1.037160   -0.124061
 C   -0.746728   -3.557891   -1.159956
 C   -0.360245   -4.310292   -2.430600
 C   -1.775979   -4.348156   -0.352165
 N   -0.784896   -1.074876    0.606973
 C   -1.060338   -0.358246    1.847921
 C   -0.949066    1.168407    1.639615
 O   -0.200853    1.872342    2.293720
 C   -0.148548   -0.833784    2.967412
 C   -0.231013   -2.330781    3.266263
 C    0.712753   -2.673888    4.417283
 C   -1.655958   -2.773159    3.598017
 C   -3.190532    3.687749    0.596865
 N   -4.252456    3.114871    1.006543
 C   -1.822603    3.071432    0.371208
 N   -1.802536    1.655180    0.695585
 C   -1.290994    3.400440   -1.034889
 C   -2.256477    3.187317   -2.216854
 C   -2.603140    1.735371   -2.432159
 O   -1.890770    0.989915   -3.098586
 N   -3.737463    1.301609   -1.843470
 H    3.772465    4.061693   -0.233237
 H    2.211152    3.505651    0.422455
 H    3.495308    4.029252    1.520198
 H    2.030061    1.330731    1.585564
 H    3.429032    0.229799    1.658994
 H    3.356108    1.664455    2.703275
 H    5.706240    1.072386    0.912395
 H    5.837411    2.647386    0.098765
 H    5.549259    2.570317    1.847195
 H    3.454688    0.065195   -2.489917
 H    0.677703    0.845532   -3.063016
 H    0.833117   -0.915067   -4.819441
 H    2.464215   -1.329967   -4.253486
 H    2.149121    0.258092   -4.980593
 H   -0.942013   -0.659568   -2.898892
 H   -2.230188   -2.330625   -2.088059
 H    0.146141   -3.429155   -0.552986
 H    0.445135   -3.800119   -2.960181
 H   -0.022828   -5.318582   -2.185493
 H   -1.218162   -4.395502   -3.104309
 H   -2.696650   -4.477402   -0.927202
 H   -2.031493   -3.853554    0.588042
 H   -1.385474   -5.338450   -0.113697
 H    0.175416   -1.271434    0.349595
 H   -2.104596   -0.561002    2.095505
 H    0.881072   -0.565672    2.715714
 H   -0.404915   -0.270177    3.868466
 H    0.099961   -2.886645    2.381127
 H    0.394906   -2.168019    5.333123
 H    0.720052   -3.747643    4.612197
 H    1.734420   -2.361736    4.196451
 H   -2.060904   -2.182013    4.424955
 H   -2.333620   -2.672225    2.746508
 H   -1.667382   -3.821204    3.902499
 H   -3.247808    4.752667    0.354395
 H   -4.048998    2.135043    1.222352
 H   -1.138556    3.538704    1.081615
 H   -2.349893    0.987395    0.172810
 H   -0.374342    2.833414   -1.189714
 H   -1.024006    4.459420   -1.025534
 H   -1.768928    3.541868   -3.122599
 H   -3.169631    3.769090   -2.075733
 H   -4.248855    1.903270   -1.219498
 H   -3.882075    0.308611   -1.769674
