22 
3vbv_ligand_aiqm1.xyz
 C   22.947701   34.256002    3.244252
 C   23.167737   35.543813    2.829574
 C   22.998935   35.875829    1.463040
 C   23.209601   37.169054    0.926107
 C   23.009241   37.387205   -0.416256
 C   22.593125   36.351728   -1.285466
 C   22.382646   35.089554   -0.784523
 O   21.982463   34.074125   -1.573277
 C   22.588227   34.831709    0.603335
 N   22.363743   33.560632    1.020642
 C   22.545407   33.281556    2.290437
 C   22.270059   31.853573    2.695265
 O   21.453682   31.165906    2.124136
 N   22.985976   31.415380    3.782933
 H   23.044639   33.980893    4.285458
 H   23.464948   36.310813    3.535070
 H   23.523599   37.971983    1.578782
 H   23.169281   38.376095   -0.827611
 H   22.435141   36.539560   -2.338186
 H   21.883209   33.303894   -0.994103
 H   22.922216   30.427473    3.962509
 H   23.858724   31.856622    4.009483
