18 
3vbw_ligand_aiqm1.xyz
 O   22.570813   33.773369    3.664676
 C   22.350137   34.013132    2.507181
 C   22.738445   35.232536    1.751476
 C   23.449864   36.335020    2.212692
 C   23.702679   37.365506    1.305258
 C   23.253768   37.291307   -0.016995
 C   22.537301   36.184142   -0.475367
 C   22.290116   35.158404    0.430774
 C   21.565011   33.883096    0.192944
 O   21.046633   33.520713   -0.829783
 C   21.575455   33.093444    1.527680
 C   22.221005   31.797976    1.381489
 N   22.745034   30.772504    1.261397
 H   23.793637   36.379206    3.237091
 H   24.257136   38.235435    1.629897
 H   23.467198   38.104886   -0.696794
 H   22.186784   36.113476   -1.495987
 H   20.554886   32.937249    1.882870
