25 
3vby_ligand_dft.xyz
 C   23.392097   37.599101   -0.442934
 C   23.962117   38.054211    0.733808
 C   23.998975   37.248155    1.886949
 C   23.468633   35.969764    1.889605
 C   22.888896   35.484217    0.709439
 C   22.859107   36.308983   -0.432262
 N   22.231668   35.596226   -1.438889
 C   21.877740   34.363883   -0.973896
 C   22.267835   34.232879    0.339549
 C   22.043808   33.092991    1.233769
 O   22.087402   33.201412    2.449662
 C   21.777667   31.774662    0.612088
 O   21.140087   30.859716    1.386304
 C   21.068735   29.717088    0.680323
 C   21.658310   29.858689   -0.537298
 C   22.123359   31.205206   -0.582268
 H   23.361111   38.219644   -1.333659
 H   24.386204   39.053196    0.767899
 H   24.449506   37.642284    2.792760
 H   23.481749   35.349325    2.777986
 H   22.029538   35.946278   -2.360741
 H   21.336273   33.671852   -1.602734
 H   20.569952   28.894063    1.168571
 H   21.756446   29.100613   -1.300342
 H   22.682785   31.678560   -1.375690
