37 
3vqu_ligand_aiqm1.xyz
 O   -2.005018  -37.981930   -5.370696
 C   -2.050909  -38.045637   -6.585326
 N   -2.497068  -39.168951   -7.234870
 C   -1.602077  -36.918973   -7.456775
 C   -1.292841  -37.073745   -8.808118
 C   -0.876621  -35.997315   -9.582398
 C   -1.469564  -35.656044   -6.877993
 C   -1.061202  -34.573765   -7.638860
 C   -0.755132  -34.729720   -8.999347
 N   -0.401152  -33.578563   -9.722185
 C    0.434309  -33.431714  -10.806573
 C    0.640807  -32.135549  -11.291284
 C    1.473991  -31.956444  -12.396305
 N    1.672215  -30.731824  -12.959247
 C    2.088678  -33.097787  -12.944769
 C    2.958429  -32.934417  -14.053597
 N    3.655397  -32.680973  -14.947709
 N    1.007772  -34.529725  -11.326528
 C    1.814495  -34.342282  -12.363696
 O    2.428844  -35.393592  -12.907462
 C    2.199114  -36.681324  -12.313407
 C    3.060779  -37.652085  -13.082705
 H   -2.936244  -39.850902   -6.640269
 H   -2.859170  -39.090720   -8.167712
 H   -1.350288  -38.056695   -9.261285
 H   -0.630550  -36.136415  -10.623345
 H   -1.685923  -35.542508   -5.825637
 H   -0.969495  -33.596444   -7.175465
 H   -0.636155  -32.713753   -9.268972
 H    0.141658  -31.289076  -10.836626
 H    1.417994  -29.920362  -12.427465
 H    2.421999  -30.626084  -13.622284
 H    1.138696  -36.928770  -12.396788
 H    2.467037  -36.643091  -11.256190
 H    2.784253  -37.654367  -14.136517
 H    4.111848  -37.377669  -13.000201
 H    2.927795  -38.657485  -12.682995
