37 
3vqu_ligand_ani-2x.xyz
 O   -2.175421  -37.927502   -5.372105
 C   -2.079040  -38.030340   -6.582520
 N   -2.386025  -39.196979   -7.238448
 C   -1.598194  -36.904206   -7.440339
 C   -1.026597  -37.093883   -8.697684
 C   -0.585547  -36.023929   -9.463198
 C   -1.698299  -35.606450   -6.938908
 C   -1.277088  -34.528287   -7.694203
 C   -0.712819  -34.721353   -8.964721
 N   -0.333588  -33.572847   -9.670573
 C    0.478836  -33.419282  -10.775350
 C    0.692516  -32.126562  -11.268074
 C    1.518855  -31.943186  -12.381369
 N    1.726202  -30.706802  -12.928972
 C    2.110672  -33.091400  -12.961821
 C    2.980343  -32.964842  -14.091349
 N    3.676584  -32.771578  -14.998843
 N    1.030486  -34.505318  -11.327160
 C    1.812029  -34.324758  -12.372725
 O    2.378934  -35.398818  -12.932885
 C    2.084786  -36.676016  -12.361681
 C    2.905763  -37.680614  -13.137010
 H   -2.834820  -39.896103   -6.664196
 H   -2.661193  -39.171687   -8.208384
 H   -0.890501  -38.101685   -9.083064
 H   -0.148897  -36.191549  -10.440523
 H   -2.113036  -35.464645   -5.945401
 H   -1.373163  -33.520642   -7.294110
 H   -0.648037  -32.706867   -9.259815
 H    0.215071  -31.268514  -10.801317
 H    1.527664  -29.898366  -12.361988
 H    2.483512  -30.608779  -13.588446
 H    1.009318  -36.873541  -12.450614
 H    2.342395  -36.664329  -11.296729
 H    2.633637  -37.652542  -14.195600
 H    3.970666  -37.451142  -13.044174
 H    2.730696  -38.691358  -12.757303
