65 
3vrt_ligand_xtb.xyz
 O    7.508444   -2.564895   -1.229374
 C    6.906950   -2.090191   -0.047455
 C    5.804918   -1.063984   -0.314641
 C    5.132135   -0.631788    0.985740
 C    4.050617    0.454977    0.834585
 C    4.682063    1.743309    0.304863
 C    2.877448   -0.032455   -0.030726
 C    1.655545    0.904661   -0.196473
 C    1.230743    1.517838    1.139450
 C    1.796493    1.987492   -1.269681
 C    0.450998    2.653274   -1.562959
 C   -0.633280    1.635467   -1.933478
 C    2.262159   -1.342386    0.520700
 C    0.747802   -1.284321    0.255732
 C    0.595588   -0.107899   -0.700502
 C   -0.735048    0.552436   -0.896316
 C   -1.842982    0.205735   -0.229876
 C   -3.143947    0.815639   -0.348448
 C   -4.268886    0.430404    0.266130
 C   -5.563491    1.157721    0.050348
 C   -4.422708   -0.770569    1.148038
 C   -5.426960   -1.748608    0.497968
 O   -5.615133   -2.907698    1.277081
 C   -6.733762   -1.026800    0.312231
 C   -7.869678   -1.415227    0.865364
 C   -6.612028    0.206176   -0.549262
 O   -6.194089   -0.109080   -1.866341
 H    7.862664   -1.813356   -1.717795
 H    7.666155   -1.655868    0.620823
 H    6.489648   -2.974711    0.439640
 H    6.243964   -0.197835   -0.815552
 H    5.076876   -1.514649   -0.990133
 H    4.701819   -1.513375    1.462427
 H    5.901980   -0.247412    1.660905
 H    3.675701    0.655300    1.843860
 H    5.641509    1.915189    0.789113
 H    4.050744    2.601408    0.514326
 H    4.841802    1.689340   -0.768843
 H    3.265015   -0.221469   -1.036922
 H    1.336125    0.802093    1.948841
 H    0.189170    1.827295    1.103181
 H    1.840624    2.387460    1.373158
 H    2.178540    1.533016   -2.188014
 H    2.503934    2.757033   -0.962481
 H    0.125511    3.219766   -0.689198
 H    0.573240    3.361838   -2.385721
 H   -1.580805    2.152848   -2.072426
 H   -0.367849    1.171496   -2.889146
 H    2.710482   -2.208571    0.035283
 H    2.452492   -1.430654    1.590473
 H    0.208567   -1.099146    1.183812
 H    0.370156   -2.210602   -0.176397
 H    0.934204   -0.445708   -1.689357
 H   -1.767398   -0.613574    0.470091
 H   -3.210730    1.683872   -0.989030
 H   -5.427579    1.997675   -0.630711
 H   -5.951630    1.529768    1.002460
 H   -4.823866   -0.475839    2.122636
 H   -3.475004   -1.285581    1.307965
 H   -5.036701   -2.020983   -0.498432
 H   -4.756361   -3.320544    1.416599
 H   -7.910373   -2.296202    1.480042
 H   -8.785753   -0.866213    0.723161
 H   -7.586908    0.720417   -0.587319
 H   -6.799781   -0.762548   -2.231718
