91 
3vtc_ligand_xtb.xyz
 C   -5.385820    1.271211    0.039267
 C   -6.716348    0.511213   -0.064530
 C   -6.633569   -0.572556   -1.137493
 C   -6.328867    0.070911   -2.488398
 C   -4.998692    0.815337   -2.399088
 C   -5.082293    1.900217   -1.324871
 C   -4.280586    0.269321    0.380196
 C   -5.525336   -1.560553   -0.779771
 C   -3.885360   -0.168656   -2.043341
 C   -4.195895   -0.814088   -0.694279
 C   -5.538251    2.337275    1.137351
 C   -4.321540    3.241242    1.417831
 C   -3.297043    2.575655    2.215396
 C   -2.467278    2.148601    2.970361
 C   -1.427137    1.612320    3.825733
 C   -0.706829    0.395220    3.207618
 C   -0.141396    0.779432    1.832387
 C   -1.679785   -0.780313    3.161188
 O   -4.740231    4.436134    2.063120
 C    0.609630   -0.294237    1.010934
 C    1.372432    0.608614    0.007754
 C    1.972598    1.691843    0.894773
 C    0.875963    1.943325    1.943677
 C   -0.281537   -1.230023    0.190397
 C    0.542701   -2.042992   -0.808564
 C    1.398437   -1.150684   -1.714794
 C    2.240043   -0.208367   -0.899671
 C    1.586532   -1.088588    1.880604
 C    3.573395   -0.101253   -0.945607
 C    4.471096   -0.879710   -1.760653
 C    5.801527   -0.750349   -1.832247
 C    6.636150    0.226286   -1.060469
 C    7.665127   -0.524755   -0.198727
 C    8.466662   -1.468879   -1.060676
 C    7.612063   -2.455462   -1.808770
 C    6.625089   -1.662215   -2.692869
 C    9.783179   -1.414060   -1.164839
 O    8.419708   -3.327222   -2.566146
 O    6.949309   -1.211530    0.813879
 H   -6.954147    0.054771    0.899697
 H   -7.520436    1.209591   -0.309356
 H   -7.592208   -1.101521   -1.191624
 H   -7.127255    0.765866   -2.758766
 H   -6.275765   -0.696335   -3.264280
 H   -4.777073    1.283192   -3.365438
 H   -5.863990    2.618707   -1.582544
 H   -4.131688    2.435894   -1.291477
 H   -3.323337    0.788572    0.455236
 H   -4.490739   -0.186612    1.350930
 H   -5.464960   -2.344424   -1.538300
 H   -5.746068   -2.037610    0.178031
 H   -2.928000    0.356256   -1.994025
 H   -3.805662   -0.937378   -2.815529
 H   -3.398773   -1.519644   -0.433088
 H   -6.357413    3.005179    0.854653
 H   -5.819980    1.840765    2.071834
 H   -3.879881    3.588051    0.476949
 H   -1.873291    1.317447    4.780611
 H   -0.709806    2.411986    4.026733
 H    0.119420    0.133955    3.877392
 H   -0.988314    1.116595    1.224499
 H   -2.449866   -0.606092    2.415376
 H   -1.166779   -1.708425    2.929533
 H   -2.162042   -0.903530    4.129854
 H   -5.070521    4.209352    2.939632
 H    0.609363    1.088018   -0.620621
 H    2.216555    2.591581    0.330788
 H    2.882890    1.335531    1.374675
 H    1.312478    1.978307    2.942658
 H    0.377356    2.896279    1.767761
 H   -1.016532   -0.632286   -0.355019
 H   -0.828988   -1.919148    0.832913
 H   -0.131040   -2.641334   -1.427040
 H    1.194052   -2.732686   -0.269697
 H    2.005372   -1.777280   -2.366278
 H    0.733754   -0.557579   -2.351764
 H    1.072159   -1.894421    2.399220
 H    2.378059   -1.519719    1.272744
 H    2.053169   -0.450754    2.624757
 H    4.039172    0.633171   -0.306731
 H    4.017630   -1.645825   -2.376311
 H    7.182828    0.873069   -1.752158
 H    6.029888    0.846973   -0.405071
 H    8.346560    0.207032    0.266734
 H    7.022046   -3.030312   -1.073064
 H    5.988480   -2.358823   -3.244794
 H    7.212087   -1.084437   -3.413473
 H   10.364223   -0.684600   -0.625282
 H   10.314866   -2.100302   -1.798812
 H    7.843485   -3.897660   -3.085683
 H    7.570816   -1.745868    1.319351
