91 
3vtc_ligand_ani-2x.xyz
 C   -5.235228    1.355803    0.148800
 C   -6.577323    0.715709   -0.263316
 C   -6.412715   -0.212382   -1.472672
 C   -5.865640    0.600438   -2.654403
 C   -4.512693    1.218191   -2.274625
 C   -4.690810    2.139363   -1.058026
 C   -4.246411    0.221407    0.475658
 C   -5.423154   -1.329480   -1.115713
 C   -3.526460    0.095686   -1.919296
 C   -4.071129   -0.711975   -0.732108
 C   -5.521048    2.271543    1.349578
 C   -4.419890    3.218697    1.859951
 C   -3.327788    2.540978    2.585074
 C   -2.428233    2.003928    3.187158
 C   -1.315295    1.383376    3.916388
 C   -0.694730    0.153294    3.199273
 C   -0.156961    0.531071    1.810764
 C   -1.699204   -1.001552    3.172532
 O   -5.012066    4.233378    2.661683
 C    0.562529   -0.559773    0.976383
 C    1.281289    0.327433   -0.075078
 C    1.892731    1.469096    0.741465
 C    0.861677    1.702364    1.871950
 C   -0.354170   -1.514914    0.193283
 C    0.417141   -2.339137   -0.853281
 C    1.258607   -1.460616   -1.792496
 C    2.108298   -0.487404   -1.017893
 C    1.572564   -1.336105    1.829916
 C    3.449295   -0.374786   -1.143376
 C    4.301829   -1.342476   -1.814748
 C    5.607167   -1.143280   -2.099209
 C    6.265798    0.201569   -2.096176
 C    7.285034    0.261435   -0.957637
 C    8.242382   -0.901408   -1.062472
 C    7.582390   -2.256668   -1.129320
 C    6.568480   -2.271833   -2.286124
 C    9.560117   -0.734887   -1.071879
 O    8.574039   -3.254974   -1.285275
 O    6.539703    0.197579    0.259372
 H   -6.986683    0.157072    0.590530
 H   -7.297649    1.511995   -0.499538
 H   -7.385369   -0.646232   -1.739173
 H   -6.576928    1.391839   -2.925862
 H   -5.749187   -0.046535   -3.534600
 H   -4.122986    1.802497   -3.118436
 H   -5.382483    2.957926   -1.305448
 H   -3.723173    2.595905   -0.805676
 H   -3.270515    0.641894    0.755690
 H   -4.621117   -0.345568    1.340283
 H   -5.296913   -2.008649   -1.969842
 H   -5.815234   -1.925752   -0.281142
 H   -2.547617    0.526436   -1.666606
 H   -3.377201   -0.564661   -2.784743
 H   -3.365579   -1.511924   -0.476215
 H   -6.359302    2.928583    1.089779
 H   -5.867110    1.658532    2.193535
 H   -3.995514    3.763567    1.013127
 H   -1.669059    1.064482    4.904640
 H   -0.546969    2.144042    4.101378
 H    0.160319   -0.148737    3.819392
 H   -1.012389    0.857960    1.197601
 H   -2.487253   -0.828280    2.432317
 H   -1.225744   -1.960029    2.942627
 H   -2.188910   -1.107997    4.147239
 H   -5.291628    3.816970    3.488151
 H    0.464029    0.760629   -0.673937
 H    2.067499    2.364349    0.136210
 H    2.858702    1.169740    1.166072
 H    1.369469    1.730035    2.843831
 H    0.336771    2.657845    1.762349
 H   -1.121696   -0.918917   -0.324056
 H   -0.883544   -2.193919    0.870485
 H   -0.285165   -2.943729   -1.439140
 H    1.077656   -3.051555   -0.341627
 H    1.860653   -2.071944   -2.470008
 H    0.577541   -0.879822   -2.432711
 H    1.059848   -2.009006    2.525632
 H    2.238736   -1.942750    1.211208
 H    2.205307   -0.667786    2.424649
 H    3.950239    0.479329   -0.686177
 H    3.862408   -2.309006   -2.059528
 H    6.796929    0.352073   -3.045367
 H    5.536911    1.010764   -1.993754
 H    7.847968    1.206441   -1.005937
 H    7.024322   -2.404996   -0.192189
 H    6.054734   -3.242940   -2.319934
 H    7.127770   -2.152449   -3.223431
 H   10.000331    0.258466   -1.019815
 H   10.229191   -1.586651   -1.131882
 H    8.129767   -4.111822   -1.267595
 H    7.175698    0.162802    0.986534
