91 
3vtd_ligand_ani-2x.xyz
 C   -5.371195    0.376049    0.535711
 C   -5.306612    0.478454   -0.997509
 C   -4.769944    1.851663   -1.430942
 C   -5.691824    2.956979   -0.896304
 C   -5.743796    2.889803    0.636479
 C   -6.272926    1.513661    1.056471
 C   -3.951512    0.595099    1.092643
 C   -3.359618    2.052012   -0.856763
 C   -4.332071    3.077662    1.208896
 C   -3.411168    1.971382    0.676995
 C   -6.008638   -0.944310    0.992806
 C   -5.407534   -2.271541    0.516782
 C   -4.120635   -2.606144    1.152948
 C   -3.065739   -2.868769    1.678184
 C   -1.778071   -3.154782    2.321937
 C   -0.580255   -3.187965    1.333582
 C   -0.379319   -1.830367    0.641972
 C   -0.758130   -4.347605    0.349974
 O   -6.389595   -3.261093    0.809983
 C    0.823677   -1.675073   -0.325697
 C    0.896370   -0.128557   -0.434146
 C    0.756194    0.362792    1.009412
 C   -0.204561   -0.664679    1.656213
 C    0.606377   -2.207025   -1.750064
 C    1.689484   -1.720620   -2.729777
 C    1.866180   -0.193269   -2.710032
 C    2.034091    0.313964   -1.301142
 C    2.109728   -2.243550    0.287360
 C    3.093346    1.019004   -0.844327
 C    4.350001    1.194346   -1.549830
 C    5.455307    1.797837   -1.061496
 C    5.566948    2.389908    0.311660
 C    6.605925    1.609827    1.136802
 C    7.916919    1.581259    0.375104
 C    7.818780    1.030594   -1.035185
 C    6.752765    1.806342   -1.814248
 C    9.053168    2.035707    0.894785
 O    9.030897    1.125363   -1.755437
 O    6.137846    0.302659    1.455897
 H   -6.309758    0.316597   -1.418255
 H   -4.654787   -0.310087   -1.399786
 H   -4.733962    1.898350   -2.527169
 H   -5.323198    3.940624   -1.217693
 H   -6.701577    2.837710   -1.311071
 H   -6.409261    3.673905    1.020442
 H   -7.292112    1.370341    0.669924
 H   -6.334008    1.449395    2.152301
 H   -3.971764    0.506384    2.187761
 H   -3.278152   -0.185103    0.715233
 H   -2.965725    3.029613   -1.166507
 H   -2.678544    1.288164   -1.254745
 H   -4.365467    3.044455    2.306067
 H   -3.938140    4.063158    0.925280
 H   -2.402661    2.105505    1.089999
 H   -7.049047   -0.962554    0.654479
 H   -6.044777   -0.971490    2.088879
 H   -5.256872   -2.223291   -0.571134
 H   -1.837989   -4.128780    2.822431
 H   -1.605438   -2.417567    3.115389
 H    0.307287   -3.384580    1.950084
 H   -1.279346   -1.625953    0.037450
 H   -1.538793   -4.118775   -0.385670
 H    0.163938   -4.583744   -0.188506
 H   -1.064871   -5.258665    0.877309
 H   -5.961570   -4.122431    0.720308
 H   -0.025250    0.155531   -0.965944
 H    1.724300    0.345969    1.522698
 H    0.379894    1.390655    1.059796
 H   -1.178898   -0.222081    1.892406
 H    0.212366   -1.027505    2.603257
 H   -0.376304   -1.861339   -2.105456
 H    0.577303   -3.301400   -1.763470
 H    1.443653   -2.052992   -3.745257
 H    2.648328   -2.193903   -2.479109
 H    2.692108    0.108841   -3.359817
 H    0.962475    0.269865   -3.133400
 H    2.267038   -1.891524    1.313184
 H    2.991361   -1.951008   -0.289143
 H    2.079156   -3.337940    0.314890
 H    3.010710    1.484694    0.136024
 H    4.416191    0.765812   -2.548544
 H    4.608264    2.397405    0.839073
 H    5.907546    3.430426    0.231856
 H    6.765974    2.093523    2.104733
 H    7.500594   -0.024509   -0.975615
 H    7.120277    2.833723   -1.928534
 H    6.651156    1.379721   -2.818880
 H    9.098292    2.428395    1.908541
 H    9.974386    2.040986    0.319897
 H    9.665673    0.544713   -1.316390
 H    5.749537   -0.064458    0.650104
