91 
3vtd_ligand_aiqm1.xyz
 C   -5.182373    0.419218    0.361282
 C   -5.215284    0.339051   -1.177876
 C   -4.501937    1.552377   -1.794598
 C   -5.197583    2.842376   -1.342086
 C   -5.149219    2.946423    0.187176
 C   -5.860754    1.733303    0.794682
 C   -3.713164    0.459577    0.809456
 C   -3.039781    1.570017   -1.327028
 C   -3.687742    2.961932    0.651983
 C   -2.989921    1.670279    0.204754
 C   -5.953874   -0.737521    1.008854
 C   -5.540368   -2.163518    0.661684
 C   -4.265006   -2.593655    1.261598
 C   -3.249758   -2.978358    1.794751
 C   -2.001433   -3.438136    2.407331
 C   -0.800695   -3.401512    1.431697
 C   -0.525946   -1.972686    0.954941
 C   -1.034600   -4.383095    0.285622
 O   -6.606800   -2.995629    1.127188
 C    0.624830   -1.734018   -0.053458
 C    0.796178   -0.201564    0.102977
 C    0.812158    0.027961    1.609500
 C   -0.194932   -1.019343    2.143801
 C    0.277064   -2.000476   -1.524156
 C    1.337199   -1.420882   -2.470981
 C    1.597767    0.069605   -2.222354
 C    1.895019    0.344071   -0.765124
 C    1.895692   -2.503487    0.359113
 C    2.982018    0.981372   -0.288530
 C    4.081333    1.515931   -1.102847
 C    5.231380    2.048184   -0.657467
 C    5.671481    2.083483    0.786097
 C    6.918347    1.210594    0.931747
 C    7.986761    1.723964   -0.010417
 C    7.574305    1.743548   -1.466640
 C    6.285340    2.546351   -1.619873
 C    9.159321    2.179710    0.440811
 O    8.535737    2.336001   -2.328227
 O    6.623532   -0.159735    0.669715
 H   -6.256567    0.297489   -1.519673
 H   -4.721291   -0.579766   -1.512354
 H   -4.539615    1.479665   -2.887016
 H   -4.705343    3.710357   -1.793370
 H   -6.238288    2.842359   -1.682062
 H   -5.651528    3.863054    0.512244
 H   -6.909762    1.717138    0.478741
 H   -5.848822    1.797703    1.888098
 H   -3.664353    0.488899    1.903300
 H   -3.218648   -0.453765    0.479098
 H   -2.508936    2.414883   -1.776648
 H   -2.538568    0.651313   -1.656787
 H   -3.646004    3.049458    1.742410
 H   -3.170879    3.832612    0.234209
 H   -1.947605    1.676144    0.542563
 H   -7.007290   -0.657461    0.720450
 H   -5.916430   -0.630351    2.099724
 H   -5.446590   -2.287706   -0.425185
 H   -2.144518   -4.465226    2.755508
 H   -1.798302   -2.834839    3.295870
 H    0.064470   -3.744149    2.007249
 H   -1.432538   -1.605316    0.456662
 H   -1.789008   -3.999320   -0.404554
 H   -0.125764   -4.575384   -0.282756
 H   -1.388744   -5.344895    0.662958
 H   -6.285822   -3.899658    1.143945
 H   -0.137362    0.234619   -0.292704
 H    1.814256   -0.150869    2.007737
 H    0.539747    1.049058    1.874947
 H   -1.101957   -0.547369    2.529522
 H    0.247324   -1.588412    2.965840
 H   -0.689554   -1.527907   -1.735499
 H    0.159525   -3.068279   -1.716812
 H    1.016825   -1.559614   -3.506535
 H    2.275959   -1.970664   -2.360644
 H    2.386408    0.427323   -2.881807
 H    0.693553    0.629620   -2.482783
 H    2.198302   -2.275898    1.384244
 H    2.748008   -2.276058   -0.283600
 H    1.737108   -3.582907    0.303134
 H    3.060761    1.131447    0.785438
 H    3.939569    1.497322   -2.181442
 H    4.898788    1.724569    1.467443
 H    5.912281    3.109713    1.071636
 H    7.294048    1.258182    1.954950
 H    7.384544    0.707348   -1.775561
 H    6.515045    3.595230   -1.414368
 H    5.942632    2.477733   -2.654352
 H    9.390895    2.149355    1.498548
 H    9.898682    2.613844   -0.219756
 H    9.322831    1.788208   -2.306980
 H    5.814636   -0.190745    0.151088
