47 
3vv7_ligand_ani-2x.xyz
 O    2.887587    1.456033    1.545712
 C    2.494290    1.257571    0.411925
 N    2.048391    2.260485   -0.412887
 C    2.167826    3.646109    0.026256
 C    1.415333    2.047900   -1.661581
 N    0.886796    3.086894   -2.211161
 N    1.394766    0.802881   -2.219237
 C    1.916017   -0.206043   -1.560384
 C    2.511463   -0.126023   -0.203440
 C    1.905641   -1.491063   -2.274627
 C    2.680834   -2.701342   -1.803029
 C    1.182595   -2.727095   -1.765685
 C    0.411772   -2.733354   -0.476723
 C    0.648297   -3.709551    0.494546
 C   -0.096615   -3.730305    1.668785
 C   -1.082910   -2.776234    1.890416
 C   -1.326789   -1.779555    0.941582
 C   -0.582040   -1.784215   -0.239295
 C   -2.328936   -0.708181    1.190593
 C   -3.573893   -0.994956    1.748315
 C   -4.491047    0.029435    1.968824
 C   -4.175833    1.342709    1.656843
 C   -2.925668    1.640068    1.107082
 C   -2.011752    0.615314    0.865069
 O   -2.692627    2.953988    0.838378
 C   -1.431730    3.279488    0.295472
 H    2.539868    3.633978    1.049022
 H    1.192362    4.132148   -0.019296
 H    2.853871    4.197598   -0.622086
 H    0.492119    2.778081   -3.098913
 H    2.019794   -0.818611    0.490938
 H    3.561469   -0.452395   -0.220270
 H    1.822236   -1.347392   -3.349975
 H    3.194442   -3.300711   -2.549441
 H    3.205570   -2.616832   -0.853095
 H    0.712522   -3.302898   -2.562993
 H    1.421167   -4.454282    0.318578
 H    0.090349   -4.497219    2.416081
 H   -1.650052   -2.786509    2.818956
 H   -0.769572   -1.030182   -1.003151
 H   -3.834392   -2.022150    1.990885
 H   -5.461760   -0.202504    2.398228
 H   -4.873856    2.156424    1.828172
 H   -1.033214    0.826696    0.443402
 H   -1.289969    2.829816   -0.693853
 H   -0.617250    2.958270    0.959630
 H   -1.407377    4.367015    0.196131
