45 
3vvy_ligand_xtb.xyz
 C   -2.839149    0.883690    0.861737
 C   -3.770281   -0.092968    1.142759
 C   -3.540540   -1.398505    0.716754
 C   -2.357902   -1.697830    0.049423
 N   -0.211786   -1.033927   -0.839511
 C    0.933682   -0.151513   -0.761003
 C    1.471514    2.259961   -1.029972
 C    1.174965    3.616631   -0.931662
 C   -0.090186    3.981874   -0.473836
 C   -1.012246    3.022714   -0.116795
 C    0.544605    1.300364   -0.668723
 C   -0.714746    1.659935   -0.185422
 C   -1.660101    0.611184    0.176777
 C   -1.388790   -0.727120   -0.200752
 C    1.827235   -0.492222    0.422817
 C    3.188022   -0.701149    0.246342
 C    4.001742   -0.995815    1.326386
 C    3.459780   -1.089060    2.596172
 C    2.102388   -0.884305    2.779685
 C    1.290595   -0.585242    1.700892
 C    0.087949   -2.382118   -1.268360
 C   -0.553214   -2.692423   -2.621472
 N   -4.437719   -2.408632    1.024672
 N    2.081899    4.572910   -1.356063
 H   -3.038080    1.890581    1.194196
 H   -4.675727    0.148127    1.680004
 H   -2.211138   -2.721121   -0.257018
 H    1.517289   -0.290040   -1.682679
 H    2.444982    1.955903   -1.390583
 H   -0.346020    5.030095   -0.405818
 H   -1.986093    3.346875    0.214685
 H    3.616659   -0.633703   -0.744772
 H    5.059648   -1.156384    1.175155
 H    4.092990   -1.321281    3.440007
 H    1.673941   -0.955902    3.768799
 H    0.233192   -0.424989    1.849108
 H    1.172939   -2.480600   -1.352569
 H   -0.236473   -3.110512   -0.516942
 H   -0.315237   -3.708150   -2.927898
 H   -0.182360   -2.002395   -3.375517
 H   -1.632861   -2.583602   -2.565654
 H   -4.386101   -3.233201    0.447493
 H   -5.378414   -2.107136    1.223500
 H    3.046128    4.280939   -1.377886
 H    1.943122    5.499959   -0.986155
