49 
3vw9_ligand_ani-2x.xyz
 C    5.567310  -10.691224  -24.576672
 C    9.797750  -12.163634  -27.967054
 C    5.407174  -10.344870  -26.057354
 C    7.302029  -11.502203  -27.210369
 C    5.300322  -12.461488  -27.405124
 C    6.171427  -13.310599  -28.020110
 C    7.475485  -12.724592  -27.911842
 C    8.774667  -13.042321  -28.311589
 C    9.485134  -10.985393  -27.256396
 C    5.009552  -12.063204  -24.233155
 C    3.078284  -13.369820  -24.413600
 O    3.675360  -12.129691  -24.687314
 N    5.965912  -11.355962  -26.931068
 N    8.253376  -10.632926  -26.880007
 C   11.179237  -12.468273  -28.413504
 C   11.462296  -12.912619  -29.681182
 N   12.223650  -12.320565  -27.551678
 O   11.987479  -11.958910  -26.250814
 C   13.567575  -12.594166  -27.816731
 O   14.370078  -12.439346  -26.890139
 C   13.817296  -13.020028  -29.157610
 C   12.797566  -13.179308  -30.059955
 C   13.094564  -13.654622  -31.445612
 C   12.294922  -14.630721  -32.044428
 C   12.569584  -15.087808  -33.328531
 C   13.642892  -14.560229  -34.041687
 C   14.441276  -13.580172  -33.457872
 C   14.173328  -13.137562  -32.166722
 H    5.054649   -9.928073  -23.978830
 H    6.629722  -10.656362  -24.307958
 H    5.901309   -9.396740  -26.282896
 H    4.349055  -10.255670  -26.314719
 H    4.235903  -12.546256  -27.231427
 H    5.932341  -14.250512  -28.501611
 H    9.000774  -13.956893  -28.856137
 H   10.274418  -10.291423  -26.998341
 H    5.052063  -12.229360  -23.142947
 H    5.612280  -12.850948  -24.712931
 H    3.599364  -14.192410  -24.929686
 H    3.073872  -13.587058  -23.333855
 H    2.046150  -13.324667  -24.769253
 H   10.669357  -13.012098  -30.412937
 H   12.914916  -11.986299  -25.895989
 H   14.844849  -13.242622  -29.416953
 H   11.458609  -15.044628  -31.484500
 H   11.938051  -15.851109  -33.775542
 H   13.856005  -14.910909  -35.047945
 H   15.282354  -13.163266  -34.005703
 H   14.797736  -12.366443  -31.720522
