39 
3vzg_ligand_aiqm1.xyz
 N   -1.809414   -1.288190    1.248654
 C   -2.684538   -0.408703    0.405070
 C   -2.767856   -0.909465   -1.028217
 O   -2.070430   -2.035394   -1.215845
 C   -2.193440    1.068140    0.384282
 O   -0.893478    1.116401   -0.200667
 C   -2.332949    1.748456    1.731991
 O   -3.395354   -0.331012   -1.865254
 C    0.271285    1.093390    0.602466
 C    1.344743    1.938022   -0.077249
 C    1.958170    1.221667   -1.274999
 C    2.414174   -0.166924   -0.867080
 C    1.234336   -0.948588   -0.318065
 C    1.623073   -2.319396    0.177237
 O    2.319612    2.165598    0.913566
 O    3.127265    1.911121   -1.699377
 O    2.893029   -0.889730   -1.980622
 O    0.656131   -0.251752    0.817574
 O    0.418336   -2.954622    0.636309
 H   -1.924540   -2.261169    0.979142
 H   -0.790305   -1.047736    1.109829
 H   -2.048504   -1.202680    2.232207
 H   -3.697891   -0.429009    0.788870
 H   -2.178883   -2.278966   -2.143249
 H   -2.834651    1.569033   -0.337084
 H   -3.385052    1.811656    1.998756
 H   -1.955422    2.763768    1.663422
 H   -1.808954    1.248439    2.547695
 H    0.103613    1.491649    1.597937
 H    0.888003    2.880176   -0.401031
 H    1.230665    1.151057   -2.083068
 H    3.181376   -0.068927   -0.091662
 H    0.474257   -1.042710   -1.104848
 H    2.341266   -2.236032    0.993970
 H    2.067869   -2.870773   -0.648733
 H    3.110566    2.465464    0.454886
 H    2.888209    2.563888   -2.356357
 H    3.614306   -0.386761   -2.365615
 H    0.611577   -3.879487    0.775159
