39 
3vzg_ligand_ani-2x.xyz
 N   -1.775329   -1.313344    1.238778
 C   -2.595896   -0.418072    0.370656
 C   -2.687891   -0.980472   -1.041229
 O   -2.415713   -2.302677   -1.051284
 C   -2.131163    1.054830    0.353806
 O   -0.805607    1.188895   -0.194676
 C   -2.317488    1.740490    1.702469
 O   -3.017713   -0.374724   -2.027883
 C    0.320438    1.156008    0.643060
 C    1.411316    1.985165   -0.028625
 C    1.961776    1.252250   -1.249266
 C    2.389020   -0.157844   -0.867382
 C    1.198980   -0.887620   -0.267276
 C    1.522982   -2.301278    0.169135
 O    2.443051    2.183986    0.913191
 O    3.138418    1.908543   -1.724964
 O    2.826338   -0.857614   -2.013189
 O    0.745051   -0.168671    0.897769
 O    0.295806   -2.989058    0.396889
 H   -1.550059   -2.193508    0.740293
 H   -0.857006   -0.866594    1.418941
 H   -2.251175   -1.520290    2.129648
 H   -3.624177   -0.427160    0.742775
 H   -2.494189   -2.600430   -1.972565
 H   -2.755262    1.557299   -0.387218
 H   -3.377926    1.726461    1.970097
 H   -1.994642    2.784777    1.647657
 H   -1.765768    1.243693    2.508232
 H    0.097063    1.598437    1.619437
 H    0.966603    2.943506   -0.340533
 H    1.194840    1.194188   -2.035392
 H    3.182587   -0.090176   -0.105473
 H    0.393520   -0.924671   -1.011658
 H    2.122891   -2.254184    1.088707
 H    2.106940   -2.800335   -0.614706
 H    3.207729    2.461131    0.387117
 H    2.878279    2.639363   -2.299163
 H    3.517770   -0.309574   -2.409806
 H    0.495808   -3.880825    0.703634
