23 
3w5n_ligand_aiqm1.xyz
 C   -1.316638   -1.241965   -0.251867
 C   -1.757002    0.212735   -0.162649
 C   -0.738820    1.022468    0.617888
 C    0.645306    0.794605    0.040386
 C    0.979649   -0.695201    0.095860
 C    2.324633   -1.050130   -0.494420
 O   -1.509097   -1.795442    1.032917
 O   -1.870254    0.694809   -1.487995
 O   -1.117265    2.389474    0.507556
 O    1.534227    1.590720    0.824720
 O    0.007448   -1.395123   -0.689722
 H   -1.920199   -1.756731   -0.998071
 H   -2.722428    0.260547    0.351259
 H   -0.745093    0.706181    1.664441
 H    0.652597    1.118520   -1.005981
 H    0.926456   -1.030262    1.139920
 H    3.135143   -0.606156    0.084977
 H    2.452471   -2.131669   -0.491717
 H    2.386620   -0.699590   -1.526213
 H   -1.313514   -2.732881    0.975438
 H   -1.946894    1.650315   -1.411716
 H   -0.397043    2.902088    0.881818
 H    2.309697    1.792787    0.303071
