44 
3w9k_ligand_dft.xyz
 C   -5.941323    0.982897   -0.179409
 O   -6.147154    0.571805   -1.289457
 O   -6.143439    2.291553    0.102733
 C   -5.488719    0.128859    0.995862
 C   -5.041946   -1.275088    0.588475
 C   -3.763037   -1.320057   -0.254214
 C   -2.520745   -0.766557    0.446334
 C   -1.243870   -0.961310   -0.371592
 C    0.000830   -0.387179    0.304333
 C    1.278443   -0.590519   -0.509675
 C    2.522973   -0.014218    0.165048
 C    3.801155   -0.219280   -0.647556
 C    5.045261    0.360098    0.025917
 C    6.321944    0.139906   -0.787516
 C    7.571186    0.798975   -0.193744
 C    7.972794    0.250575    1.175995
 H   -5.939295    2.466452    1.030863
 H   -6.337360    0.065148    1.691137
 H   -4.690503    0.652901    1.537829
 H   -5.856493   -1.745324    0.028380
 H   -4.896365   -1.864312    1.502701
 H   -3.931585   -0.780445   -1.193095
 H   -3.575730   -2.366140   -0.529362
 H   -2.402717   -1.252102    1.426394
 H   -2.645253    0.306835    0.647838
 H   -1.371818   -0.493549   -1.357790
 H   -1.094179   -2.033949   -0.559071
 H    0.123441   -0.849892    1.294166
 H   -0.146656    0.687255    0.485193
 H    1.155205   -0.129341   -1.499839
 H    1.427224   -1.664759   -0.689496
 H    2.644881   -0.474407    1.156066
 H    2.374740    1.060439    0.343489
 H    3.678177    0.237894   -1.639710
 H    3.951105   -1.294141   -0.823328
 H    5.152850   -0.090348    1.021596
 H    4.901543    1.438050    0.190103
 H    6.165030    0.527617   -1.803240
 H    6.499058   -0.939940   -0.895623
 H    7.406009    1.882372   -0.119006
 H    8.406393    0.663496   -0.892172
 H    7.212821    0.461276    1.935738
 H    8.111769   -0.836481    1.136295
 H    8.912759    0.695909    1.518184
