37 
3wb4_ligand_xtb.xyz
 O   -3.025650    1.654322   -1.480547
 C   -2.676404    0.722375   -0.789033
 N   -2.625858    0.811752    0.576954
 C   -3.033437    2.061448    1.191974
 C   -2.210498   -0.235189    1.425949
 N   -2.268392   -0.231192    2.690680
 N   -1.735766   -1.350102    0.805511
 C   -2.295493   -0.620409   -1.372979
 C   -1.213570   -1.314942   -0.544576
 C   -1.019297   -2.752866   -1.021308
 C    0.101897   -0.508994   -0.636563
 C    1.169282   -0.933171    0.379720
 C    2.357643   -0.019885    0.271312
 C    3.401518   -0.312876   -0.596125
 C    4.475980    0.549492   -0.723073
 C    4.517655    1.719656    0.015167
 C    3.480506    2.021908    0.880983
 C    2.407844    1.157533    1.006188
 H   -3.952278    1.929418    1.767279
 H   -3.216155    2.773017    0.388738
 H   -2.243128    2.440588    1.842102
 H   -2.700253    0.576634    3.117044
 H   -1.338302   -2.018070    1.448204
 H   -1.977925   -0.463638   -2.403712
 H   -3.198575   -1.237400   -1.384644
 H   -0.693501   -2.764340   -2.057690
 H   -1.954667   -3.301489   -0.943041
 H   -0.273939   -3.261849   -0.416106
 H   -0.120133    0.549136   -0.476513
 H    0.504407   -0.607650   -1.646402
 H    0.754619   -0.872142    1.388144
 H    1.478602   -1.962195    0.189500
 H    3.374215   -1.226516   -1.173539
 H    5.282994    0.307507   -1.399311
 H    5.356251    2.393097   -0.082583
 H    3.508298    2.932851    1.461014
 H    1.601308    1.394078    1.686279
