38 
3wb5_ligand_ani-2x.xyz
 O   -0.474062    2.072957   -2.138228
 C   -1.111167    1.165408   -1.639573
 N   -1.961565    1.374625   -0.553173
 C   -2.173733    2.743527   -0.103443
 C   -2.599780    0.339566    0.160863
 N   -3.371300    0.497828    1.168449
 N   -2.344623   -0.935027   -0.287337
 C   -1.083618   -0.242049   -2.188396
 C   -1.195100   -1.304421   -1.093983
 C   -1.482641   -2.669320   -1.711091
 C    0.114600   -1.407887   -0.300807
 C    0.164060   -2.035530    1.060836
 C    0.438069   -0.570020    0.908437
 C    1.797066    0.037086    1.064597
 C    2.837695   -0.604493    1.739155
 C    4.088600   -0.006797    1.847284
 C    4.318768    1.243145    1.279848
 C    3.287910    1.891306    0.606121
 C    2.035748    1.291820    0.502511
 H   -1.856062    2.870828    0.938435
 H   -1.569002    3.385650   -0.740415
 H   -3.226626    3.032729   -0.200625
 H   -3.494034    1.476317    1.407457
 H   -2.717361   -1.639890    0.331437
 H   -0.172874   -0.363931   -2.775194
 H   -1.937968   -0.344675   -2.867254
 H   -1.528731   -3.435098   -0.929362
 H   -0.689449   -2.946733   -2.413730
 H   -2.437431   -2.654593   -2.246710
 H    0.964044   -1.613948   -0.951917
 H   -0.784647   -2.311933    1.513518
 H    0.982592   -2.708721    1.307839
 H   -0.351281    0.097573    1.237546
 H    2.660121   -1.574941    2.197846
 H    4.885915   -0.522284    2.376735
 H    5.297003    1.710140    1.363211
 H    3.459619    2.869249    0.162932
 H    1.231346    1.792337   -0.033621
