29 
3wc5_ligand_xtb.xyz
 O    4.590530  -17.093223    3.247472
 C    4.185017  -18.221166    3.287479
 O    3.652036  -18.761672    4.390601
 C    4.229778  -19.238685    2.166512
 C    5.319439  -20.253886    2.504854
Se    4.941568  -21.172629    4.220827
 C    4.496291  -18.561931    0.821624
 C    3.280889  -17.770226    0.342354
 C    3.522446  -17.042889   -0.981452
 C    4.629149  -15.989113   -0.939760
 C    4.404164  -14.907684    0.116118
 N    5.332394  -13.807458   -0.116209
 H    3.673925  -18.147208    5.140979
 H    3.264188  -19.756235    2.153797
 H    5.360350  -21.028968    1.738761
 H    6.294194  -19.767811    2.585403
 H    5.781840  -22.315244    3.907692
 H    4.755138  -19.318372    0.077761
 H    5.347876  -17.891973    0.941961
 H    2.999120  -17.046307    1.107033
 H    2.440152  -18.457036    0.211358
 H    2.589693  -16.557845   -1.277813
 H    3.770890  -17.778348   -1.750848
 H    5.595907  -16.465709   -0.765956
 H    4.680662  -15.497196   -1.913010
 H    3.391798  -14.505167    0.013233
 H    4.501161  -15.340312    1.123637
 H    5.185058  -13.075976    0.571082
 H    6.287347  -14.135730   -0.009490
