29 
3wc5_ligand_ani-2x.xyz
 O    4.403394  -17.012531    3.190757
 C    4.143609  -18.190161    3.277347
 O    3.759151  -18.761636    4.431601
 C    4.225421  -19.211032    2.156221
 C    5.371749  -20.175443    2.476762
Se    5.075628  -21.126631    4.190523
 C    4.436661  -18.539842    0.798492
 C    3.199754  -17.793446    0.292464
 C    3.432130  -17.017964   -1.009846
 C    4.572735  -15.993237   -0.959319
 C    4.458979  -14.981535    0.179286
 N    5.472860  -13.936156    0.029075
 H    3.775143  -18.071271    5.114692
 H    3.289505  -19.790068    2.171956
 H    5.437641  -20.941829    1.704003
 H    6.322519  -19.641787    2.542261
 H    5.917915  -22.252211    3.824105
 H    4.731560  -19.295881    0.059414
 H    5.279194  -17.844738    0.896979
 H    2.848541  -17.104828    1.071446
 H    2.385138  -18.513567    0.138879
 H    2.499749  -16.500869   -1.275690
 H    3.632146  -17.725420   -1.827052
 H    5.538621  -16.514213   -0.882000
 H    4.605365  -15.436711   -1.902998
 H    3.473355  -14.501279    0.122679
 H    4.503733  -15.498300    1.154628
 H    5.318468  -13.210130    0.722426
 H    6.392338  -14.323286    0.226907
