29 
3wc5_ligand_aiqm1.xyz
 O    4.388623  -17.085950    3.291874
 C    4.092890  -18.252005    3.310666
 O    3.607751  -18.867028    4.410726
 C    4.227665  -19.233869    2.167914
 C    5.375995  -20.184532    2.506426
Se    5.025175  -21.184388    4.181775
 C    4.461896  -18.519848    0.836956
 C    3.236974  -17.743337    0.357862
 C    3.460708  -17.022104   -0.972629
 C    4.597776  -16.000121   -0.969840
 C    4.441684  -14.910806    0.079882
 N    5.497370  -13.906255   -0.086996
 H    3.607870  -18.224392    5.130442
 H    3.302690  -19.820110    2.133205
 H    5.487949  -20.929286    1.717580
 H    6.313659  -19.636943    2.625363
 H    5.927324  -22.269755    3.837243
 H    4.736040  -19.262984    0.084830
 H    5.310472  -17.841212    0.941727
 H    2.940772  -17.023198    1.126351
 H    2.397499  -18.438501    0.250368
 H    2.531395  -16.516797   -1.251379
 H    3.655548  -17.760901   -1.756873
 H    5.562930  -16.501925   -0.823172
 H    4.647454  -15.522932   -1.950704
 H    3.479582  -14.416735   -0.064859
 H    4.431864  -15.354670    1.085726
 H    5.362913  -13.152057    0.574089
 H    6.392530  -14.323362    0.141446
