53 
3wi2_ligand_ani-2x.xyz
 C   19.962158    2.934322   62.935573
 C   26.604432    6.669710   53.822380
 C   26.794360    6.254735   55.165254
 C   20.340544    2.158118   61.843569
 C   18.749083    3.615570   62.908087
 C   25.364461    6.592217   53.245293
 C   22.948688    5.988016   53.451179
 C   25.744469    5.773066   55.900119
 C   16.659976    2.965494   56.127577
 C   19.513871    2.062753   60.729140
 C   17.913519    3.514579   61.800073
 C   17.807406    3.499818   55.583457
 C   21.940075    5.498006   54.232629
 C   18.944529    3.522272   57.748891
 C   24.258249    6.096551   53.983939
 C   24.449544    5.682839   55.325008
 C   16.636340    2.698550   57.504095
 C   17.771547    2.978434   58.272035
 C   18.291281    2.731599   60.711258
 C   18.942067    3.777096   56.385233
 C   22.243794    5.113104   55.564762
 C   16.142337    2.136054   59.512656
 C   14.726758    0.287583   60.392927
 C   14.293373    2.662855   61.102614
 C   21.166244    4.580094   56.475292
 C   15.370182    1.643637   60.702359
 N   23.436745    5.198311   56.096834
 N   15.641369    2.169425   58.304936
 N   17.440703    2.618819   59.573440
 O   20.002684    4.307334   55.719603
 H   20.612106    3.009990   63.803247
 H   27.451711    7.049065   53.257210
 H   27.784695    6.322368   55.608913
 H   21.287933    1.625907   61.852896
 H   18.445121    4.226515   63.753310
 H   25.206580    6.907556   52.215755
 H   22.762299    6.295938   52.423506
 H   25.859432    5.447928   56.929569
 H   15.793664    2.755912   55.506172
 H   19.804225    1.469518   59.865349
 H   16.965323    4.043516   61.771015
 H   17.864598    3.721092   54.521652
 H   20.924439    5.393814   53.865981
 H   19.798286    3.724566   58.388538
 H   14.042133    0.379248   59.543348
 H   15.488013   -0.457217   60.140761
 H   14.165301   -0.070577   61.262159
 H   14.731886    3.638183   61.340553
 H   13.581530    2.803952   60.281169
 H   13.744263    2.308222   61.980847
 H   20.949314    5.320501   57.256252
 H   21.537461    3.671540   56.963786
 H   16.069302    1.514202   61.535697
