31 
3wk4_ligand_ani-2x.xyz
 C    5.368587   -0.056790    0.034427
 C    4.466981   -0.231712    1.079547
 C    4.882337    0.146778   -1.253457
 C    3.093387   -0.208074    0.862137
 C    3.513551    0.175343   -1.486754
 C    2.609838   -0.003858   -0.433621
 C    0.171193   -0.295476    0.070194
 C   -3.574809    1.785931   -0.562259
 C   -4.576492    0.922324    0.155348
 C   -3.418002    0.293977   -0.560937
 C   -2.536587   -1.793533    0.549397
 C   -2.280182   -0.325425    0.219077
 N    1.236441    0.054909   -0.743354
 N   -1.047889   -0.162737   -0.553681
 O    0.281965   -0.700099    1.217941
 H    6.438161   -0.079204    0.223337
 H    4.833977   -0.393472    2.090580
 H    5.570401    0.285892   -2.083574
 H    2.395200   -0.350738    1.676552
 H    3.142074    0.336564   -2.496349
 H   -2.879385    2.356034    0.048911
 H   -3.873916    2.281065   -1.481935
 H   -4.560782    0.926152    1.243015
 H   -5.569403    0.819398   -0.273011
 H   -3.648443   -0.224183   -1.492216
 H   -1.717330   -2.184042    1.157015
 H   -2.604375   -2.382594   -0.371713
 H   -3.474104   -1.897748    1.106704
 H   -2.165512    0.214693    1.171202
 H    1.032034    0.241357   -1.714349
 H   -1.108716    0.449268   -1.355776
