25 
3wk7_ligand_dft.xyz
 C  -18.685120  -11.733882   69.182018
 C  -17.322656  -12.065923   69.079000
 C  -19.277073  -10.825280   68.315549
 C  -16.512549  -11.499113   68.106851
 C  -16.153949   -8.009259   63.828352
 C  -18.284623   -7.457368   63.926670
 C  -17.343496   -8.257773   64.549847
 C  -18.454711  -10.261912   67.343001
 C  -17.088094  -10.581527   67.224022
 C  -17.487440   -9.160840   65.677110
 C  -18.193045   -5.845273   61.999771
 N  -16.344283   -7.136692   62.851421
 N  -18.683256   -9.346561   66.335427
 N  -16.514479   -9.880017   66.178221
 N  -17.647547   -6.813336   62.925215
 H  -19.288196  -12.198244   69.956363
 H  -16.899947  -12.781736   69.777419
 H  -20.329378  -10.570278   68.396786
 H  -15.460657  -11.750981   68.021930
 H  -15.181524   -8.446666   64.001872
 H  -19.338008   -7.298350   64.110373
 H  -17.979346   -6.159221   60.976202
 H  -19.273148   -5.786100   62.144672
 H  -17.746965   -4.863339   62.175923
 H  -19.558510   -8.897332   66.123985
