25 
3wk7_ligand_ani-2x.xyz
 C  -18.693298  -11.729364   69.179693
 C  -17.328194  -12.062942   69.087159
 C  -19.276053  -10.822657   68.307333
 C  -16.512765  -11.498386   68.120615
 C  -16.144785   -8.002630   63.817537
 C  -18.280237   -7.457320   63.934306
 C  -17.331602   -8.258200   64.549074
 C  -18.448733  -10.258422   67.336894
 C  -17.084478  -10.579488   67.229739
 C  -17.468919   -9.161092   65.675640
 C  -18.209075   -5.859378   62.001865
 N  -16.347056   -7.129056   62.847777
 N  -18.668278   -9.343945   66.324741
 N  -16.502135   -9.881861   66.188185
 N  -17.647944   -6.809909   62.934491
 H  -19.302108  -12.192692   69.951234
 H  -16.905463  -12.777831   69.788173
 H  -20.329984  -10.567427   68.381527
 H  -15.458768  -11.751904   68.044351
 H  -15.163975   -8.433468   63.979176
 H  -19.337011   -7.293272   64.118533
 H  -18.098000   -6.230237   60.980324
 H  -19.268681   -5.730390   62.229142
 H  -17.696729   -4.899106   62.095639
 H  -19.543728   -8.896020   66.104851
