32 
3wka_ligand_ani-2x.xyz
 C  -16.452053   -9.588503   70.674539
 C  -16.254528   -9.903761   72.006918
 C  -16.073758   -8.277090   70.174785
 C  -15.350521   -7.706180   72.502492
 C  -17.901027  -12.011595   67.498557
 C  -16.577658  -12.343892   68.187885
 C  -18.870939  -11.375140   68.493753
 C  -16.008577  -11.109210   68.875765
 C  -18.228804  -10.162480   69.157382
 C  -15.498633   -9.372837   74.290650
 N  -15.559443   -7.435230   71.164318
 N  -16.991090  -10.573642   69.822305
 N  -15.724766   -8.996221   72.897307
 N  -16.524824  -11.166413   72.475252
 O  -16.162604   -7.880378   69.022086
 O  -14.876975   -6.886559   73.262611
 H  -18.340354  -12.913823   67.058303
 H  -17.717701  -11.313164   66.667791
 H  -15.848574  -12.740263   67.469969
 H  -16.741460  -13.122064   68.945177
 H  -19.130170  -12.101368   69.275207
 H  -19.805612  -11.080248   68.000512
 H  -15.726921  -10.338792   68.139449
 H  -15.111191  -11.361603   69.447963
 H  -18.886048   -9.744272   69.924999
 H  -18.026407   -9.367938   68.423460
 H  -14.968901   -8.548065   74.759786
 H  -16.446745   -9.534338   74.816249
 H  -14.895128  -10.283058   74.347522
 H  -15.281121   -6.511097   70.864767
 H  -17.041290  -11.735497   71.816470
 H  -16.812277  -11.279380   73.436570
