32 
3wkb_ligand_xtb.xyz
 C  -18.493911   -3.755042   53.757631
 C  -17.662835   -4.076146   52.697393
 C  -18.149894   -4.146788   55.038976
 C  -13.664582   -5.578016   59.398130
 C  -13.711557   -4.654443   58.370295
 C  -16.498899   -4.788056   52.920832
 C  -16.980938   -4.854367   55.263082
 C  -14.017898   -6.893058   59.143388
 C  -14.114090   -5.028100   57.099870
 C  -16.143778   -5.182660   54.205409
 C  -14.413446   -7.277604   57.874987
 C  -14.476303   -6.346211   56.821591
 C  -15.288167   -9.068491   56.472531
 C  -15.670560   -7.977735   55.483543
 C  -14.854632   -5.948439   54.414987
 N  -14.723618   -8.614935   57.611786
 N  -14.827045   -6.808143   55.570907
 O  -15.505396  -10.243731   56.273240
 H  -19.405616   -3.202954   53.584643
 H  -17.924366   -3.775052   51.693648
 H  -18.792306   -3.900611   55.871702
 H  -13.354838   -5.283638   60.388294
 H  -13.440271   -3.625953   58.554539
 H  -15.854561   -5.040704   52.090352
 H  -16.723580   -5.146231   56.270642
 H  -13.978325   -7.633427   59.929352
 H  -14.158724   -4.277797   56.326915
 H  -16.734869   -7.734983   55.656952
 H  -15.595341   -8.399076   54.477070
 H  -14.017536   -5.246534   54.484338
 H  -14.671966   -6.575912   53.534479
 H  -14.511852   -9.297764   58.327792
