58 
3wq5_ligand_xtb.xyz
 C    3.120959    1.118257   -1.079172
 C    3.586690    2.347474   -0.336017
 N    3.599761    0.879876   -2.220570
 C    4.307320    1.923563    0.915201
 C    3.754353    2.123839    2.172504
 C    4.415913    1.689392    3.309129
 C    5.634169    1.042866    3.199004
 C    5.531489    1.272185    0.813733
 C    6.191286    0.835226    1.947391
 N    2.263835    0.335429   -0.342159
 C    1.547356   -0.808905   -0.818730
 O    0.248070   -0.723990   -0.290618
 C    2.233461   -2.117389   -0.363222
 O    3.496563   -2.281294   -0.960205
 C    1.367439   -3.309403   -0.777526
 O    1.865889   -4.520192   -0.264943
 C   -0.062028   -3.127728   -0.251483
 O   -0.902242   -4.142387   -0.723051
 C   -0.604762   -1.769144   -0.717415
 C   -1.991902   -1.502677   -0.145295
 O   -2.528226   -0.372196   -0.808259
 C   -3.639232    0.185284   -0.198071
 O   -4.729841   -0.699724   -0.261609
 C   -5.894087   -0.161792    0.318296
 C   -6.342492    1.128537   -0.376825
 O   -7.467582    1.627726    0.294314
 C   -5.190167    2.142321   -0.358891
 O   -5.586987    3.275086   -1.092761
 C   -3.937927    1.492844   -0.948477
 O   -2.863161    2.391974   -0.833916
 H    4.254215    2.897062   -0.998950
 H    2.727502    2.974530   -0.091538
 H    3.280762    0.030984   -2.677969
 H    2.805125    2.633583    2.268023
 H    3.977564    1.856617    4.282115
 H    6.149546    0.703353    4.085003
 H    5.960263    1.112706   -0.165096
 H    7.142744    0.332283    1.856275
 H    1.930183    0.689591    0.540667
 H    1.518054   -0.799581   -1.924851
 H    2.323814   -2.099075    0.735042
 H    4.017635   -1.479741   -0.826949
 H    1.342210   -3.352133   -1.879160
 H    2.807179   -4.555966   -0.474155
 H   -0.024172   -3.139674    0.850440
 H   -0.437565   -4.979452   -0.589870
 H   -0.676487   -1.771151   -1.814751
 H   -1.908064   -1.298454    0.929795
 H   -2.624034   -2.380390   -0.307124
 H   -3.422567    0.420030    0.869437
 H   -6.663535   -0.927327    0.221306
 H   -5.733573    0.053962    1.384627
 H   -6.585126    0.911987   -1.429123
 H   -7.634588    2.512972   -0.054103
 H   -4.976460    2.430012    0.684339
 H   -4.798648    3.811125   -1.240712
 H   -4.119169    1.239637   -2.004398
 H   -2.056725    1.897550   -1.028675
