46 
3ws9_ligand_aiqm1.xyz
 C   17.993440    8.097278   56.864108
 C   19.223888    8.564485   57.320116
 C   17.827202    6.740457   56.599244
 C   24.367651    6.293058   55.707542
 C   23.041292    6.495479   56.058468
 C   20.281876    7.681817   57.519101
 C   18.882563    5.851489   56.785318
 C   24.517052    4.264092   57.025726
 C   17.536544    1.272417   61.621973
 C   25.114008    5.191877   56.180246
 C   23.180046    4.449451   57.390159
 C   22.464136    5.553249   56.910836
 C   20.107950    6.323370   57.252927
 C   17.548669    2.433613   62.365321
 C   19.226041    2.399784   60.891319
 C   21.212431    4.270409   58.214867
 C   16.801251    3.029853   63.413482
 C   17.205034    4.247037   63.858788
 C   18.353567    4.870289   63.263124
 C   26.550514    5.033397   55.758936
 C   20.413650    2.867884   60.126283
 C   20.012991    3.798486   58.974872
 N   18.563969    1.268531   60.723125
 N   22.374172    3.671010   58.205302
 N   19.069754    4.360210   62.300674
 N   21.191697    5.425954   57.447143
 N   18.640479    3.144859   61.875313
 H   17.172371    8.784721   56.714682
 H   19.361633    9.617419   57.525539
 H   16.876316    6.369943   56.241925
 H   24.847065    7.006043   55.046185
 H   22.481480    7.340684   55.679543
 H   21.242998    8.033865   57.871353
 H   18.763021    4.796354   56.576714
 H   25.067971    3.408910   57.397277
 H   16.848214    0.450001   61.692047
 H   15.947345    2.511082   63.824967
 H   16.686514    4.759821   64.652364
 H   18.690905    5.839861   63.605413
 H   26.632975    4.945369   54.673397
 H   27.146171    5.897166   56.062718
 H   26.989320    4.141559   56.207587
 H   20.942531    2.008274   59.720105
 H   21.090881    3.401345   60.796997
 H   19.352446    3.263102   58.284866
 H   19.449377    4.660446   59.347808
