89 
3wt7_ligand_xtb.xyz
 O   -6.889075   -0.785392   -0.487612
 C   -5.722650   -1.580913   -0.298521
 C   -5.158873   -1.827421   -1.705833
 C   -6.083114   -2.643362   -2.603839
 C   -6.163989   -2.889770    0.399055
 C   -5.118455   -3.994936    0.490815
 C   -4.708145   -0.857934    0.619085
 C   -3.957282    0.352034    0.042876
 C   -4.902896    1.537955   -0.196683
 C   -4.340191    2.581564   -1.159852
 C   -5.355345    3.685637   -1.446064
 C   -4.806440    4.726432   -2.414293
 C   -2.752467    0.750767    0.936903
 C   -3.157329    0.842497    2.408652
 C   -1.560843   -0.198136    0.710746
 C   -1.113965   -0.222993   -0.773967
 C    0.418729   -0.349390   -0.792182
 C   -0.246808    0.086775    1.482094
 C    0.758449   -0.739884    0.639863
 C    0.116938    1.572972    1.447088
 C   -0.190854   -0.454591    2.913400
 C    1.230545   -0.389656    3.474133
 C    2.245006   -1.100719    2.571782
 C    2.155354   -0.592964    1.159826
 C    3.161537   -0.070260    0.448374
 C    4.520849    0.122020    0.890060
 C    5.515750    0.637538    0.157222
 C    6.899291    0.802088    0.705431
 C    5.390096    1.064534   -1.279754
 C    6.744451    1.039112   -2.007962
 O    7.403176    2.274199   -1.774016
 C    7.548972   -0.140857   -1.522547
 C    7.918530   -1.130004   -2.319283
 C    7.857262   -0.149830   -0.037534
 O    7.809381   -1.452540    0.500257
 H   -7.300359   -0.637996    0.370976
 H   -4.184550   -2.309928   -1.621694
 H   -5.022750   -0.851879   -2.172240
 H   -6.162071   -3.675770   -2.274582
 H   -5.700291   -2.640969   -3.622175
 H   -7.074233   -2.198437   -2.606043
 H   -7.036104   -3.267951   -0.137610
 H   -6.492702   -2.634044    1.412051
 H   -4.776396   -4.299789   -0.493698
 H   -5.552925   -4.863214    0.982225
 H   -4.255009   -3.681357    1.072233
 H   -5.252001   -0.546001    1.514668
 H   -3.967922   -1.596498    0.923494
 H   -3.555310    0.064649   -0.928609
 H   -5.150084    2.021449    0.750974
 H   -5.829750    1.153715   -0.622957
 H   -4.067407    2.095013   -2.099925
 H   -3.435635    3.035111   -0.748438
 H   -5.631005    4.173428   -0.507994
 H   -6.260426    3.240779   -1.865495
 H   -4.543917    4.263107   -3.363072
 H   -3.914018    5.196094   -2.005386
 H   -5.545114    5.501768   -2.604305
 H   -2.443945    1.749092    0.617302
 H   -4.121430    1.335668    2.506647
 H   -2.437641    1.429745    2.970982
 H   -3.227279   -0.142894    2.861690
 H   -1.876660   -1.208181    0.994326
 H   -1.424729    0.690399   -1.281204
 H   -1.572322   -1.062917   -1.295643
 H    0.761053   -1.093862   -1.510604
 H    0.876104    0.604490   -1.050367
 H    0.478351   -1.794694    0.766748
 H    1.185091    1.707923    1.598877
 H   -0.411666    2.118030    2.225328
 H   -0.140457    2.014545    0.489459
 H   -0.848935    0.107664    3.574589
 H   -0.528899   -1.494819    2.915272
 H    1.247269   -0.850858    4.464624
 H    1.528841    0.652941    3.593195
 H    3.243662   -0.973855    2.986450
 H    2.021375   -2.172855    2.568209
 H    2.953265    0.250096   -0.561769
 H    4.747435   -0.156194    1.910636
 H    7.229490    1.829285    0.543741
 H    6.940126    0.577652    1.772096
 H    4.696177    0.415621   -1.815028
 H    5.011434    2.089427   -1.329307
 H    6.564337    0.932503   -3.090300
 H    8.272482    2.243288   -2.186106
 H    8.464442   -1.975107   -1.935283
 H    7.685394   -1.135587   -3.370900
 H    8.893853    0.172757    0.123625
 H    6.901649   -1.771196    0.425525
