56 
3wvm_ligand_dft.xyz
 C    4.184968   -0.469910   -0.619476
 O    4.488073   -0.096384    0.482023
 O    4.981302   -0.174188   -1.672614
 C    2.932097   -1.260596   -0.955467
 C    2.140125   -1.691464    0.273941
 C    0.821724   -2.363781   -0.101886
 C    0.001507   -2.787438    1.117299
 C   -1.210656   -3.662035    0.772184
 C   -2.183207   -3.057946   -0.246725
 C   -2.840311   -1.754182    0.205923
 C   -3.740476   -1.145590   -0.870787
 C   -4.587730    0.038189   -0.389142
 C   -3.802898    1.166472    0.288201
 C   -2.689516    1.772463   -0.566652
 C   -1.981240    2.925214    0.145118
 C   -0.842569    3.567835   -0.652882
 C    0.294600    2.614548   -1.047742
 C    0.890132    1.799883    0.105438
 C    1.425392    2.629410    1.273282
 C    2.054400    1.760063    2.360952
 H    4.607103   -0.540338   -2.484943
 H    3.214728   -2.137290   -1.555598
 H    2.307908   -0.632845   -1.608639
 H    1.947390   -0.815938    0.902268
 H    2.753761   -2.370320    0.877653
 H    1.020347   -3.244555   -0.730703
 H    0.232742   -1.671513   -0.720305
 H   -0.317297   -1.890259    1.664350
 H    0.647332   -3.346056    1.807445
 H   -1.756518   -3.892426    1.696733
 H   -0.847844   -4.622530    0.381891
 H   -2.968616   -3.794326   -0.462565
 H   -1.663229   -2.888671   -1.199679
 H   -2.065532   -1.027102    0.483385
 H   -3.425200   -1.939736    1.118665
 H   -4.414552   -1.921622   -1.257737
 H   -3.117420   -0.837926   -1.721731
 H   -5.343386   -0.331869    0.316732
 H   -5.140682    0.447551   -1.245195
 H   -3.367590    0.799158    1.227701
 H   -4.506093    1.960060    0.574245
 H   -3.104233    2.125534   -1.522121
 H   -1.958053    0.993633   -0.819599
 H   -1.596987    2.562470    1.108642
 H   -2.719887    3.699961    0.390402
 H   -0.430169    4.397948   -0.065837
 H   -1.252710    4.018071   -1.566792
 H    1.093014    3.205380   -1.516162
 H   -0.061455    1.920615   -1.820781
 H    1.715079    1.192402   -0.287723
 H    0.143052    1.085641    0.483524
 H    0.614954    3.228591    1.707497
 H    2.168590    3.343918    0.894672
 H    1.320376    1.049728    2.762465
 H    2.899250    1.184919    1.967125
 H    2.418777    2.367511    3.195965
