72 
3wzj_ligand_xtb.xyz
 O  -40.609303  -20.764234  -16.188370
 C  -39.610556  -21.457881  -16.125199
 N  -39.250578  -22.309256  -17.120166
 C  -40.015659  -22.465405  -18.310707
 C  -40.063052  -23.798492  -18.992683
 C  -39.321134  -22.653939  -19.624934
 C  -38.684014  -21.425303  -14.961149
 C  -37.912172  -22.513870  -14.560253
 C  -37.084933  -22.418016  -13.461553
 C  -36.997001  -21.230410  -12.727276
 C  -37.784424  -20.147618  -13.124006
 C  -38.617382  -20.250189  -14.216771
 C  -36.128396  -21.166119  -11.574087
 C  -35.553096  -22.209256  -10.852867
 N  -34.812267  -21.760030   -9.834172
 C  -34.899569  -20.434694   -9.900361
 N  -35.699728  -20.031427  -10.935197
 N  -35.968322  -18.757600  -11.242608
 C  -35.404261  -17.842579  -10.478495
 N  -35.589740  -16.528934  -10.772565
 C  -36.484515  -15.979601  -11.774258
 C  -37.952842  -16.293352  -11.469307
 C  -38.861623  -15.653155  -12.513520
 C  -38.487924  -16.126032  -13.914402
 C  -37.026991  -15.807288  -14.214221
 C  -36.113976  -16.457351  -13.179609
 C  -34.577795  -18.150247   -9.361900
 C  -34.296378  -19.462210   -9.059294
 N  -33.469595  -19.919789   -8.085544
 C  -33.033820  -19.136041   -6.961527
 C  -34.147454  -18.881337   -5.930611
 C  -34.653450  -20.188078   -5.315263
 C  -35.696375  -19.879206   -4.239508
 O  -35.184425  -19.033622   -3.235878
 C  -34.759657  -17.799133   -3.760697
 C  -33.653434  -17.972773   -4.803724
 H  -38.379851  -22.812091  -17.060004
 H  -40.910486  -21.858778  -18.264811
 H  -40.994318  -24.118366  -19.432569
 H  -39.481953  -24.605408  -18.571590
 H  -38.241884  -22.692183  -19.628101
 H  -39.741311  -22.185244  -20.500635
 H  -37.974564  -23.457363  -15.085078
 H  -36.492653  -23.270507  -13.166745
 H  -37.734994  -19.232504  -12.558398
 H  -39.241637  -19.422813  -14.520559
 H  -35.661969  -23.263102  -11.016038
 H  -35.249837  -15.887423  -10.076162
 H  -36.346409  -14.891900  -11.733661
 H  -38.205507  -15.922720  -10.472353
 H  -38.087304  -17.374451  -11.469811
 H  -38.764992  -14.565444  -12.459798
 H  -39.901630  -15.906683  -12.299596
 H  -39.133228  -15.645089  -14.652049
 H  -38.641501  -17.203359  -13.985176
 H  -36.881440  -14.723712  -14.201579
 H  -36.765128  -16.167894  -15.210487
 H  -36.212419  -17.540540  -13.221599
 H  -35.071238  -16.203167  -13.381192
 H  -34.170070  -17.337906   -8.782466
 H  -33.499451  -20.922584   -7.973886
 H  -32.652514  -18.178265   -7.327960
 H  -32.206723  -19.666528   -6.483743
 H  -34.983327  -18.390655   -6.443942
 H  -33.817934  -20.720736   -4.855994
 H  -35.102135  -20.827397   -6.076696
 H  -36.010226  -20.791024   -3.727793
 H  -36.578459  -19.411681   -4.706671
 H  -34.402926  -17.219362   -2.906939
 H  -35.614518  -17.272953   -4.216477
 H  -33.362015  -16.995588   -5.191930
 H  -32.784507  -18.429016   -4.325530
