44 
3zc5_ligand_aiqm1.xyz
 C   -3.362275   -1.709822    0.211289
 N   -4.013264   -2.869468   -0.096360
 C   -2.281966   -1.763884    1.128262
 N    0.724515    1.871103   -0.339913
 C   -1.600670   -0.622775    1.467259
 N    1.450874    0.887676    0.244986
 C   -1.958626    0.638095    0.916842
 N    4.033459   -2.085374    1.639095
 C   -1.172189    1.876882    1.320575
 N    4.902241   -1.979712    0.617621
 C   -0.457617    2.393334    0.110671
 N    0.060539    3.439149   -1.739672
 C    2.544079    0.570580   -0.403851
 C    3.357714   -0.483105    0.183544
 C    3.093137   -1.181275    1.383272
 C    4.544537   -1.040059   -0.275543
 N   -0.858902    3.323019   -0.724955
 C    6.063682   -2.847685    0.589634
 C    2.950030    1.216176   -1.634240
 C    2.200063    2.203294   -2.181936
 C    1.006803    2.555526   -1.494936
 C   -2.034113    2.963669    1.965345
 C   -2.993976    0.706575    0.017759
 C   -3.714922   -0.457134   -0.350807
 C   -4.788903   -0.429020   -1.272214
 C   -5.436212   -1.596507   -1.575880
 C   -5.005844   -2.795048   -0.955004
 H   -2.015939   -2.728451    1.541120
 H   -0.763329   -0.672832    2.156238
 H   -0.399482    1.558712    2.029529
 H    2.256178   -1.048494    2.049039
 H    5.150929   -0.852460   -1.145656
 H    6.664527   -2.680611    1.479504
 H    5.742175   -3.885282    0.563669
 H    6.647736   -2.618880   -0.299640
 H    3.864132    0.901086   -2.110924
 H    2.466606    2.713514   -3.095725
 H   -2.540517    2.567919    2.845992
 H   -1.415329    3.810989    2.263613
 H   -2.789275    3.332173    1.272175
 H   -3.266026    1.653214   -0.436110
 H   -5.081993    0.511721   -1.723365
 H   -6.261608   -1.619553   -2.274440
 H   -5.511080   -3.726875   -1.186060
