44 
3zc5_ligand_dft.xyz
 C   -2.550239   -2.167277    0.299228
 N   -2.848447   -3.451745   -0.048416
 C   -1.880148   -1.937783    1.527640
 N    0.407691    2.146302   -0.034682
 C   -1.556255   -0.663400    1.912548
 N    1.090507    1.045134    0.333156
 C   -1.880091    0.454679    1.102367
 N    3.347580   -2.433122    0.886663
 C   -1.510669    1.860356    1.559630
 N    4.425251   -1.966821    0.228364
 C   -0.776820    2.586538    0.476820
 N   -0.184770    3.990643   -1.093495
 C    2.188662    0.825939   -0.345141
 C    2.916007   -0.391124    0.002701
 C    2.432825   -1.486360    0.757309
 C    4.213084   -0.752818   -0.318453
 N   -1.129883    3.684526   -0.157936
 C    5.628790   -2.768073    0.180902
 C    2.657297    1.706897   -1.389488
 C    1.948908    2.815421   -1.723191
 C    0.741823    3.056391   -1.016262
 C   -2.739114    2.653193    2.020310
 C   -2.531688    0.251906   -0.089154
 C   -2.880369   -1.052451   -0.517360
 C   -3.545695   -1.312287   -1.741308
 C   -3.839092   -2.605427   -2.079554
 C   -3.465371   -3.642849   -1.190151
 H   -1.633535   -2.800254    2.138373
 H   -1.033859   -0.497676    2.851387
 H   -0.818595    1.759860    2.405788
 H    1.447193   -1.607452    1.185299
 H    4.989992   -0.241944   -0.869246
 H    6.000647   -2.938950    1.193515
 H    5.414495   -3.729013   -0.291627
 H    6.384367   -2.236441   -0.399896
 H    3.573766    1.458409   -1.912326
 H    2.257540    3.502711   -2.501987
 H   -3.239456    2.116864    2.831747
 H   -2.450705    3.647125    2.372516
 H   -3.448036    2.781092    1.198151
 H   -2.776908    1.099062   -0.727659
 H   -3.813213   -0.483684   -2.392216
 H   -4.347400   -2.846433   -3.007378
 H   -3.692872   -4.676525   -1.446373
