44 
3zc5_ligand_xtb.xyz
 C   -2.197533   -1.646169    0.840219
 N   -2.418604   -2.963870    0.663912
 C   -1.750262   -1.191508    2.097841
 N    0.513263    2.348238   -0.112556
 C   -1.500976    0.135965    2.302436
 N    0.938172    1.131106    0.185157
 C   -1.685852    1.080218    1.274935
 N    2.386657   -2.722352    0.707284
 C   -1.380160    2.538994    1.520540
 N    3.440842   -2.583596   -0.093271
 C   -0.519082    3.057258    0.420943
 N    0.349975    4.303068   -1.117125
 C    1.936946    0.670574   -0.520670
 C    2.370255   -0.673058   -0.209361
 C    1.728154   -1.587972    0.656916
 C    3.476518   -1.372258   -0.671122
 N   -0.600469    4.214480   -0.189381
 C    4.375176   -3.659446   -0.254666
 C    2.568593    1.438207   -1.552808
 C    2.128110    2.692498   -1.839477
 C    1.038424    3.183635   -1.094576
 C   -2.659571    3.370574    1.634558
 C   -2.137914    0.661582    0.049479
 C   -2.396828   -0.697838   -0.200699
 C   -2.840592   -1.185352   -1.447798
 C   -3.054993   -2.527400   -1.601670
 C   -2.825965   -3.375892   -0.502285
 H   -1.605236   -1.922582    2.877935
 H   -1.146699    0.476471    3.265109
 H   -0.816837    2.625721    2.458808
 H    0.824901   -1.439775    1.211660
 H    4.266432   -1.096028   -1.340384
 H    4.027700   -4.488889    0.357302
 H    4.424971   -3.974475   -1.298499
 H    5.371487   -3.358127    0.074071
 H    3.390771    1.002864   -2.096571
 H    2.565782    3.312343   -2.604763
 H   -3.253670    3.025659    2.477351
 H   -2.406329    4.417574    1.771955
 H   -3.249797    3.279395    0.727056
 H   -2.289619    1.374012   -0.751268
 H   -3.003315   -0.491194   -2.261620
 H   -3.393805   -2.939955   -2.539866
 H   -2.989121   -4.442598   -0.595229
