22 
3zi8_ligand_ani-2x.xyz
 C   -0.146935   -1.728450   -0.372526
 C   -1.362206   -0.822226   -0.489055
 C   -1.242603    0.356020    0.477793
 C    0.118188    1.031666    0.334951
 C    1.226693   -0.012853    0.467887
 C    2.619399    0.570463    0.328518
 O   -2.520035   -1.570956   -0.198328
 O   -2.295887    1.268744    0.249991
 O    0.179869    1.692570   -0.923202
 O    1.049205   -0.987170   -0.556384
 H   -0.166339   -2.507148   -1.139011
 H   -0.158618   -2.218835    0.614583
 H   -1.411545   -0.418956   -1.517561
 H   -1.356511   -0.025733    1.501444
 H    0.221111    1.810184    1.099616
 H    1.129195   -0.511073    1.447221
 H    2.835480    1.250945    1.160048
 H    2.709601    1.133062   -0.605479
 H    3.361675   -0.231923    0.331157
 H   -3.239219   -0.924042   -0.153631
 H   -1.990903    1.824392   -0.485350
 H    0.440784    1.021119   -1.572583
