22 
3zi8_ligand_aiqm1.xyz
 C   -0.148957   -1.722517   -0.372317
 C   -1.355565   -0.805881   -0.501452
 C   -1.236943    0.354804    0.479483
 C    0.120784    1.032834    0.322120
 C    1.226393   -0.010235    0.474283
 C    2.616383    0.559586    0.326378
 O   -2.508874   -1.583478   -0.235345
 O   -2.309114    1.264230    0.294547
 O    0.175422    1.676015   -0.947898
 O    1.057505   -0.991303   -0.543489
 H   -0.167666   -2.485462   -1.146567
 H   -0.171648   -2.212386    0.609974
 H   -1.399352   -0.399269   -1.522272
 H   -1.329843   -0.033361    1.496457
 H    0.219777    1.815781    1.075748
 H    1.119258   -0.480757    1.461200
 H    2.809996    1.291498    1.110669
 H    2.723613    1.053887   -0.638990
 H    3.354680   -0.236820    0.397356
 H   -3.247183   -0.971498   -0.166604
 H   -2.032762    1.872281   -0.399150
 H    0.484499    1.011850   -1.574031
