28 
3zll_ligand_xtb.xyz
 C   37.037468    4.204818   10.256767
 N   34.988754    3.304523    9.340395
 O   36.756156    5.424042    9.737324
 C   36.146753    3.185924   10.098306
 C   36.419344    1.895617   10.697738
 O   39.611291    2.652207   12.108939
 C   37.735849    8.372962   13.387812
 C   37.676209    7.075508   13.870510
 C   38.276860    8.619760   12.138145
 C   38.154596    6.027449   13.106149
 C   38.748559    7.570759   11.366948
 C   38.571291    2.821356   11.509499
 C   39.202265    5.112437   11.018633
 N   38.234293    4.026841   10.929120
 O   35.666559    0.942206   10.675712
 N   37.634865    1.832391   11.363795
 C   38.692433    6.266686   11.846400
 H   34.607714    4.236626    9.290085
 H   34.319084    2.579492    9.557665
 H   37.319529    6.104189   10.133620
 H   37.364669    9.190451   13.986882
 H   37.260607    6.880379   14.847412
 H   38.330668    9.629107   11.759199
 H   38.121387    5.016214   13.484080
 H   39.175692    7.769586   10.393135
 H   39.481815    5.440220   10.010959
 H   40.082886    4.670828   11.498071
 H   37.866603    0.944521   11.795499
