28 
3zll_ligand_ani-2x.xyz
 C   36.931180    4.129875   10.332999
 N   34.946374    3.147237    9.377305
 O   36.538451    5.348967    9.889349
 C   36.118877    3.069277   10.107422
 C   36.499005    1.763747   10.612914
 O   39.669848    2.651127   12.022290
 C   37.879535    8.538000   13.398453
 C   37.516888    7.252092   13.788022
 C   38.631840    8.719032   12.241688
 C   37.897308    6.149474   13.028343
 C   39.012848    7.617033   11.481472
 C   38.601793    2.787008   11.463328
 C   39.103970    5.147700   11.015695
 N   38.155709    4.023240   10.968118
 O   35.819104    0.754990   10.500600
 N   37.731844    1.739206   11.268663
 C   38.644597    6.323207   11.859901
 H   34.495157    4.050160    9.355265
 H   34.338295    2.353571    9.522666
 H   36.959543    6.055737   10.408282
 H   37.578418    9.395452   13.994610
 H   36.928365    7.103202   14.689716
 H   38.917905    9.719081   11.925664
 H   37.602328    5.151848   13.342220
 H   39.595384    7.759902   10.573202
 H   39.313006    5.490608    9.995093
 H   40.017413    4.710806   11.415555
 H   38.039217    0.845521   11.629968
