31 
3zlw_ligand_ani-2x.xyz
 C   -2.045184    0.367423    0.067188
 O   -2.921723    1.008905    0.990154
 C   -2.032188   -1.145136    0.331545
 C   -0.940710   -1.840245   -0.471980
 C   -2.622198    0.695194   -1.309064
 N    0.364461   -1.300384   -0.114307
 C    1.388499   -2.199235    0.108813
 O    1.210480   -3.404804    0.050387
 C    2.726018   -1.589224    0.466884
 C    2.949255   -0.263328   -0.249095
 C    1.787939    0.658940    0.017562
 C    1.934028    2.017984    0.251433
 C    0.824946    2.833004    0.475449
 C   -0.446839    2.272593    0.443699
 C    0.501192    0.096416    0.030774
 C   -0.629899    0.914224    0.202962
 H   -2.596219    0.822283    1.882365
 H   -1.823149   -1.309010    1.397042
 H   -3.017447   -1.568282    0.111333
 H   -0.911316   -2.905887   -0.247433
 H   -1.099393   -1.739886   -1.555116
 H   -2.669039    1.781397   -1.439681
 H   -2.007115    0.284443   -2.116014
 H   -3.637508    0.294288   -1.393088
 H    3.494026   -2.329128    0.233226
 H    2.736467   -1.435282    1.554511
 H    3.029403   -0.448483   -1.329217
 H    3.890326    0.198622    0.069570
 H    2.933897    2.447530    0.264817
 H    0.953914    3.895096    0.665040
 H   -1.324624    2.889873    0.610341
