18 
3zly_ligand_aiqm1.xyz
 C  -18.601355   26.514119   -3.159630
 N  -18.518453   25.371485   -3.346758
 C  -18.766340   27.927018   -2.955377
 C  -17.675718   28.771860   -2.831098
 C  -17.863484   30.160871   -2.659467
 C  -19.121535   30.730326   -2.615833
 C  -20.219594   29.864647   -2.740192
 N  -21.555557   30.091659   -2.752002
 N  -22.278436   28.939898   -2.883405
 C  -21.395860   27.965800   -2.973908
 C  -20.062044   28.478734   -2.900666
 N  -21.785394   26.641218   -3.033978
 H  -16.676783   28.362987   -2.867950
 H  -16.990266   30.791325   -2.563477
 H  -19.250671   31.796385   -2.489388
 H  -22.044640   30.952862   -2.604862
 H  -22.735890   26.535027   -3.354734
 H  -21.142981   26.029779   -3.516274
