37 
3zmj_ligand_aiqm1.xyz
 O   -3.667374   -2.206289   -1.598663
 C   -3.286595   -1.266321   -2.255565
 C   -2.142279   -0.373508   -1.874796
 C   -1.655677   -0.604417   -0.441278
 N   -0.368374    0.070967   -0.225971
 C    0.774410   -0.392335   -0.786349
 O    1.842654    0.243306   -0.265027
 C    3.096719   -0.142655   -0.841547
 O    0.845416   -1.240065   -1.650735
 C   -2.645150   -0.107538    0.588474
 C   -3.381362   -1.010036    1.359531
 C   -4.297421   -0.551011    2.303846
 C   -4.480958    0.816347    2.493106
 C   -3.750011    1.721980    1.729989
 C   -2.837887    1.262798    0.783299
 C    4.203498    0.630729   -0.152331
 C    5.533340    0.295729   -0.823617
 C    4.256155    0.320802    1.339914
 H   -3.773739   -1.026234   -3.219066
 H   -1.330465   -0.576882   -2.575422
 H   -2.439436    0.669871   -2.023381
 H   -1.510962   -1.681211   -0.315057
 H   -0.263276    0.669670    0.573948
 H    3.073608    0.067901   -1.913235
 H    3.230926   -1.219921   -0.717917
 H   -3.253964   -2.072762    1.195950
 H   -4.866536   -1.262887    2.887816
 H   -5.190776    1.174132    3.226928
 H   -3.889142    2.786395    1.868680
 H   -2.273240    1.974645    0.189275
 H    3.999779    1.698970   -0.288632
 H    5.509082    0.513321   -1.892456
 H    5.766510   -0.764548   -0.696428
 H    6.344751    0.871645   -0.378753
 H    3.340525    0.623444    1.848031
 H    5.094197    0.838420    1.809757
 H    4.393351   -0.752248    1.497983
