37 
3zmj_ligand_xtb.xyz
 O   -3.241803   -2.678324   -0.810769
 C   -2.913868   -1.936800   -1.692964
 C   -1.906348   -0.835530   -1.594821
 C   -1.434221   -0.582057   -0.153060
 N   -0.295082    0.322538   -0.148770
 C    0.876710    0.046417   -0.759811
 O    1.777492    1.015431   -0.476106
 C    3.084198    0.861726   -1.022871
 O    1.082211   -0.901399   -1.479247
 C   -2.548712    0.003024    0.675838
 C   -3.184416   -0.757768    1.646702
 C   -4.224849   -0.221361    2.385300
 C   -4.635569    1.082057    2.165684
 C   -4.004792    1.847736    1.199717
 C   -2.969479    1.310055    0.456587
 C    4.106039    0.503894    0.061165
 C    5.507422    0.512963   -0.542612
 C    3.787737   -0.857208    0.673832
 H   -3.348366   -2.032387   -2.708781
 H   -1.038270   -1.136208   -2.191254
 H   -2.316950    0.072287   -2.041028
 H   -1.129092   -1.550539    0.265970
 H   -0.322272    1.119199    0.467111
 H    3.339350    1.819838   -1.485375
 H    3.054742    0.080139   -1.789204
 H   -2.872391   -1.777207    1.812608
 H   -4.715672   -0.823553    3.135125
 H   -5.446209    1.500768    2.743336
 H   -4.322369    2.864736    1.021581
 H   -2.485260    1.911189   -0.300547
 H    4.046594    1.267843    0.844191
 H    5.741707    1.487913   -0.963818
 H    5.582608   -0.231227   -1.332213
 H    6.246488    0.281073    0.219962
 H    2.803973   -0.849027    1.137873
 H    4.522463   -1.111594    1.434167
 H    3.796557   -1.628437   -0.093197
