40 
3zo1_ligand_aiqm1.xyz
 C  -32.217672  -10.222906   -0.994843
 N  -31.082689  -10.420989   -1.601983
 N  -33.243303   -9.915681   -1.849687
 C  -32.717679   -9.918306   -3.112199
 N  -33.374396   -9.669352   -4.251474
 C  -32.554981   -9.761268   -5.292303
 C  -31.368760  -10.233858   -2.950896
 C  -30.608987  -10.299789   -4.145722
 N  -31.248935  -10.052708   -5.306795
 N  -29.302236  -10.641000   -4.208114
 C  -28.421867  -10.652661   -3.041149
 C  -27.608097   -9.359318   -2.961250
 C  -26.807792   -9.079435   -4.245912
 C  -27.750269   -9.204323   -5.451218
 C  -28.556985  -10.500698   -5.456891
 N  -26.349474   -7.675463   -4.224361
 C  -25.281055   -7.393350   -3.261421
 C  -24.068228   -8.308639   -3.411844
 C  -24.509055   -9.768349   -3.362910
 C  -25.599408  -10.030766   -4.401039
 H  -32.372447  -10.286010    0.068357
 H  -34.201055   -9.722371   -1.621043
 H  -32.993578   -9.574546   -6.264912
 H  -29.004489  -10.793322   -2.139793
 H  -27.754989  -11.514172   -3.147042
 H  -27.893738  -11.366181   -5.548481
 H  -29.259405  -10.522589   -6.283748
 H  -28.290534   -8.515046   -2.819313
 H  -26.947444   -9.395894   -2.093904
 H  -28.444215   -8.360628   -5.413260
 H  -27.168069   -9.114308   -6.373321
 H  -26.006851   -7.457951   -5.156152
 H  -25.914633  -11.075499   -4.362988
 H  -25.182464   -9.867997   -5.402559
 H  -24.995182   -6.345255   -3.378839
 H  -25.697695   -7.493575   -2.256286
 H  -23.572615   -8.108301   -4.367751
 H  -23.337958   -8.096142   -2.627176
 H  -23.660018  -10.433911   -3.536618
 H  -24.886752  -10.001441   -2.363159
