40 
3zo1_ligand_ani-2x.xyz
 C  -32.288619  -10.378529   -1.019200
 N  -31.164896  -10.666027   -1.608247
 N  -33.216174   -9.820673   -1.855918
 C  -32.633372   -9.746907   -3.094320
 N  -33.182861   -9.262782   -4.216593
 C  -32.336147   -9.356780   -5.230555
 C  -31.354929  -10.278213   -2.930974
 C  -30.557119  -10.312791   -4.107456
 N  -31.094411   -9.849629   -5.245658
 N  -29.288250  -10.830349   -4.167058
 C  -28.393401  -10.777821   -3.008484
 C  -27.609779   -9.462877   -2.962428
 C  -26.835035   -9.165064   -4.264783
 C  -27.779530   -9.383164   -5.462850
 C  -28.536486  -10.710117   -5.414204
 N  -26.489520   -7.728287   -4.276031
 C  -25.445560   -7.347447   -3.326235
 C  -24.164949   -8.177911   -3.445941
 C  -24.481172   -9.671800   -3.382472
 C  -25.563963  -10.038203   -4.400464
 H  -32.505462  -10.547992    0.026586
 H  -34.150224   -9.518205   -1.628605
 H  -32.699370   -8.987827   -6.188855
 H  -28.987252  -10.914284   -2.103524
 H  -27.706512  -11.630178   -3.095668
 H  -27.843320  -11.558887   -5.458172
 H  -29.231746  -10.795129   -6.250073
 H  -28.307513   -8.631818   -2.806620
 H  -26.932164   -9.481561   -2.101100
 H  -28.514037   -8.569870   -5.459182
 H  -27.208437   -9.300797   -6.397188
 H  -26.157492   -7.498586   -5.211502
 H  -25.822375  -11.099834   -4.319170
 H  -25.158832   -9.893934   -5.413737
 H  -25.233832   -6.282674   -3.475893
 H  -25.853033   -7.432065   -2.310612
 H  -23.678447   -7.950215   -4.405584
 H  -23.457166   -7.891846   -2.658045
 H  -23.578506  -10.262993   -3.572366
 H  -24.814109   -9.939935   -2.370823
