40 
3zo1_ligand_xtb.xyz
 C  -32.263992  -10.247210   -1.011362
 N  -31.122637  -10.343711   -1.617863
 N  -33.318905  -10.077224   -1.861050
 C  -32.795658  -10.064234   -3.120458
 N  -33.436282   -9.923244   -4.281081
 C  -32.609388   -9.958203   -5.309055
 C  -31.409506  -10.232619   -2.958370
 C  -30.639136  -10.252825   -4.144310
 N  -31.299162  -10.108470   -5.306388
 N  -29.313999  -10.444558   -4.191226
 C  -28.474965  -10.478451   -3.020277
 C  -27.586478   -9.234386   -2.956157
 C  -26.758164   -9.021569   -4.235608
 C  -27.717448   -9.092225   -5.437311
 C  -28.585988  -10.349055   -5.432467
 N  -26.229571   -7.654976   -4.217625
 C  -25.155085   -7.433401   -3.268508
 C  -23.983216   -8.402275   -3.453294
 C  -24.499279   -9.835649   -3.369327
 C  -25.621340  -10.054014   -4.384313
 H  -32.383602  -10.294977    0.053180
 H  -34.291934   -9.978581   -1.627085
 H  -33.063181   -9.847631   -6.285488
 H  -29.101998  -10.532449   -2.130362
 H  -27.854327  -11.380918   -3.069329
 H  -27.963575  -11.243575   -5.543578
 H  -29.311996  -10.313146   -6.244838
 H  -28.214630   -8.351809   -2.824887
 H  -26.939082   -9.318484   -2.085062
 H  -28.366508   -8.215555   -5.395476
 H  -27.151112   -9.049532   -6.370081
 H  -25.895442   -7.425470   -5.149591
 H  -26.010149  -11.067244   -4.283324
 H  -25.202941   -9.958676   -5.391081
 H  -24.818003   -6.400337   -3.386450
 H  -25.563732   -7.538079   -2.260480
 H  -23.526167   -8.235161   -4.432765
 H  -23.224303   -8.222634   -2.690314
 H  -23.688351  -10.540646   -3.567767
 H  -24.864769  -10.030795   -2.359174
