40 
3zo2_ligand_ani-2x.xyz
 C  -32.438944  -10.195301   -0.943168
 N  -31.265080  -10.456181   -1.439517
 N  -33.328777   -9.720505   -1.867412
 C  -32.664032   -9.675729   -3.065259
 N  -33.154300   -9.269867   -4.244465
 C  -32.235276   -9.370199   -5.192708
 C  -31.378125  -10.138242   -2.789408
 C  -30.498961  -10.189751   -3.905704
 N  -30.975274   -9.804352   -5.099167
 N  -29.207424  -10.648148   -3.854043
 C  -28.399046  -10.504303   -2.638522
 C  -27.673591   -9.155538   -2.609316
 C  -26.806242   -8.918965   -3.867529
 C  -27.662906   -9.200985   -5.119688
 C  -28.379414  -10.552496   -5.055774
 C  -26.354091   -7.449480   -3.911863
 N  -25.474998   -7.142785   -2.794485
 C  -24.222715   -7.881830   -2.878664
 C  -24.518054   -9.373590   -2.797117
 C  -25.523959   -9.783692   -3.876217
 H  -32.721171  -10.327051    0.092381
 H  -34.288683   -9.451677   -1.719347
 H  -32.546042   -9.062651   -6.190360
 H  -29.051003  -10.622603   -1.771806
 H  -27.676239  -11.330166   -2.633981
 H  -27.656582  -11.375497   -5.016455
 H  -29.016053  -10.700770   -5.928283
 H  -28.431984   -8.362792   -2.552443
 H  -27.064935   -9.072871   -1.704205
 H  -28.432813   -8.422793   -5.214425
 H  -27.034017   -9.144194   -6.017474
 H  -25.876206   -7.268207   -4.896651
 H  -27.238143   -6.802512   -3.856058
 H  -25.766666  -10.847527   -3.777227
 H  -25.047097   -9.668721   -4.862592
 H  -25.283861   -6.147009   -2.770400
 H  -23.673632   -7.678473   -3.819541
 H  -23.576629   -7.571971   -2.050250
 H  -23.591409   -9.949561   -2.908278
 H  -24.916626   -9.608014   -1.802580
