35 
3zot_ligand_ani-2x.xyz
 O   -2.448216    3.044972    1.517888
 C   -2.078368    2.208351    2.309007
 C   -1.249350    1.006465    1.934988
 C   -1.279668    0.684410    0.434210
 C   -2.614463    0.110103   -0.017657
 C   -2.975014   -1.194763    0.323941
 C   -4.204615   -1.715241   -0.066075
 C   -5.089593   -0.936454   -0.807520
 C   -4.742600    0.368176   -1.144853
 C   -3.514789    0.888125   -0.746705
 N   -0.207139   -0.256489    0.117349
 C    1.086609    0.172010    0.078823
 O    1.500997    1.235518    0.480551
 O    1.856526   -0.807726   -0.473625
 C    3.232942   -0.628015   -0.565581
 C    3.811444    0.552821   -1.019152
 C    5.193313    0.600534   -1.175561
 C    5.986977   -0.500580   -0.870214
 C    5.389078   -1.672734   -0.413770
 C    4.009596   -1.743967   -0.269462
 H   -2.314813    2.317101    3.388264
 H   -0.212294    1.234214    2.207881
 H   -1.548934    0.131489    2.526823
 H   -1.109123    1.632615   -0.090852
 H   -2.291060   -1.813222    0.904804
 H   -4.467342   -2.736021    0.200876
 H   -6.048143   -1.345700   -1.116615
 H   -5.430565    0.983865   -1.719455
 H   -3.255688    1.916676   -0.992090
 H   -0.423258   -1.034386   -0.490898
 H    3.196771    1.418549   -1.237853
 H    5.653274    1.519416   -1.530921
 H    7.065623   -0.446222   -0.989390
 H    5.999091   -2.540160   -0.175370
 H    3.523093   -2.654030    0.069812
