30 
3zpq_ligand_xtb.xyz
 C  -23.121940  -13.209731   24.805437
 C  -24.543620  -13.408915   24.288925
 N  -25.413111  -12.423254   24.987702
 C  -24.977553  -11.037459   24.662558
 C  -23.548813  -10.876869   25.172995
 N  -22.691229  -11.854097   24.536453
 C  -21.306237  -11.666132   24.952030
 C  -20.922022  -11.806248   26.287186
 C  -21.534816  -12.112025   27.517373
 C  -20.513945  -12.073256   28.458173
 N  -19.317216  -11.773275   27.945285
 C  -19.528029  -11.603682   26.622283
 C  -18.608944  -11.278888   25.629207
 C  -19.037492  -11.152005   24.325548
 C  -20.379161  -11.344121   23.985779
 H  -22.439186  -13.881545   24.282779
 H  -23.082164  -13.467234   25.878539
 H  -24.901885  -14.419424   24.490062
 H  -24.588305  -13.206807   23.218249
 H  -25.272256  -12.556881   25.999462
 H  -26.400930  -12.568171   24.760306
 H  -25.651625  -10.322078   25.135627
 H  -25.007859  -10.913951   23.579500
 H  -23.542126  -10.953517   26.274591
 H  -23.170042   -9.887364   24.912090
 H  -22.573448  -12.336981   27.736088
 H  -20.616078  -12.258795   29.518228
 H  -17.570467  -11.129570   25.888860
 H  -18.331896  -10.899694   23.544439
 H  -20.704106  -11.241731   22.958646
