68 
3zqe_ligand_xtb.xyz
 C   -5.094783   -0.342054    1.700047
 C   -4.262451    0.908562    1.442403
 C   -3.973228    1.111604   -0.047688
 C   -3.270511   -0.106505   -0.691544
 C   -4.109794   -1.356837   -0.357414
 C   -4.368798   -1.559828    1.130210
 C   -3.176768    2.400260   -0.264391
 C   -1.748799    2.283748    0.254635
 C   -1.024696    1.095087   -0.376080
 C   -1.818977   -0.206845   -0.163553
 C    0.350904    0.902659    0.255523
 C    1.174356   -0.243263   -0.364149
 C    0.369260   -1.534518   -0.145507
 C   -1.039427   -1.391841   -0.747469
 C    1.321585    2.077605    0.242051
 C    2.675868    1.422093    0.563500
 C    2.480055   -0.111934    0.459895
 C   -3.300303    0.032167   -2.221072
 C    3.743722   -0.811502   -0.065300
 O    0.310320   -1.809877    1.242044
 O   -5.292305   -0.444533    3.097004
 C    1.463357   -0.045228   -1.853622
 C    4.915688   -0.566395    0.902860
 C    6.281576   -0.616446    0.196192
 C    6.444854    0.617560   -0.647640
 O    6.000879    0.783599   -1.752875
 O    7.131386    1.572910   -0.005351
 C    3.557933   -2.320200   -0.227198
 H   -6.072549   -0.241005    1.196612
 H   -3.343590    0.817088    2.018759
 H   -4.804338    1.773953    1.827815
 H   -4.943943    1.227946   -0.546939
 H   -5.077257   -1.247139   -0.855898
 H   -3.639554   -2.248539   -0.773679
 H   -3.434514   -1.700102    1.676287
 H   -4.977339   -2.458259    1.274964
 H   -3.154341    2.638101   -1.329269
 H   -3.684302    3.224275    0.242283
 H   -1.754683    2.171821    1.339771
 H   -1.207376    3.202828    0.023173
 H   -0.911364    1.294726   -1.444335
 H   -1.869919   -0.363899    0.917685
 H    0.189615    0.623088    1.302604
 H    0.859736   -2.379208   -0.654311
 H   -0.943384   -1.292719   -1.827024
 H   -1.576521   -2.322989   -0.548197
 H    1.333102    2.552117   -0.739527
 H    1.057759    2.835826    0.978048
 H    3.442111    1.751840   -0.139113
 H    3.000902    1.702355    1.565159
 H    2.265217   -0.514803    1.453582
 H   -3.007536   -0.902033   -2.694245
 H   -4.308591    0.271079   -2.553975
 H   -2.637204    0.814811   -2.573485
 H    4.008820   -0.382249   -1.034787
 H   -0.298596   -2.543553    1.376400
 H   -5.765360   -1.262089    3.285073
 H    1.899181   -0.946628   -2.276979
 H    2.165755    0.768106   -2.000682
 H    0.562728    0.182232   -2.415048
 H    4.898151   -1.326565    1.685893
 H    4.822218    0.404464    1.387407
 H    6.341180   -1.495844   -0.444463
 H    7.081123   -0.640209    0.935952
 H    7.192474    2.373638   -0.549933
 H    4.521666   -2.811109   -0.345927
 H    2.962287   -2.556827   -1.103298
 H    3.067133   -2.734075    0.650737
