44 
3zqt_ligand_aiqm1.xyz
 O   -4.689016    1.541015   -1.524633
 C   -3.928240    1.093823   -0.488778
 C   -3.394383   -0.185039   -0.523016
 C   -3.671534    1.920932    0.606735
 O   -4.232470    3.175190    0.542111
 C   -2.894323    1.462882    1.653916
 C   -2.363048    0.172121    1.615578
 C   -2.604960   -0.667105    0.528032
 C   -1.996626   -2.041872    0.451439
 C   -0.759003   -2.126883   -0.460143
 C   -0.286242   -3.580219   -0.536346
 C    0.349948   -1.150713   -0.027660
 C    1.006792   -1.538035    1.298504
 C    1.404005   -0.979828   -1.134447
 C    2.413884    0.091920   -0.822642
 C    3.749201   -0.211159   -0.556039
 C    2.021088    1.434123   -0.744590
 C    2.932005    2.422439   -0.415760
 O    2.617780    3.757490   -0.316862
 C    4.265558    2.107535   -0.151087
 C    4.669367    0.784533   -0.222897
 O    5.158025    3.082906    0.176839
 H   -4.991711    2.427884   -1.302258
 H   -3.604815   -0.801468   -1.389363
 H   -4.078551    3.631849    1.371087
 H   -2.695318    2.106729    2.503236
 H   -1.744474   -0.169971    2.433899
 H   -2.741977   -2.750377    0.078635
 H   -1.722632   -2.378449    1.455888
 H   -1.078138   -1.818606   -1.465060
 H    0.597725   -3.695140   -1.165241
 H   -1.072011   -4.218433   -0.946489
 H   -0.038249   -3.961943    0.457169
 H   -0.129404   -0.176601    0.109927
 H    1.595554   -2.453594    1.194582
 H    1.682742   -0.750717    1.639419
 H    0.269194   -1.707097    2.086285
 H    0.894339   -0.742706   -2.074564
 H    1.929188   -1.928685   -1.287111
 H    4.081877   -1.240226   -0.601241
 H    0.988303    1.708712   -0.937188
 H    1.697699    3.883688   -0.556059
 H    5.704187    0.545740   -0.016048
 H    4.688464    3.923457    0.156345
