72 
3zsw_ligand_dft.xyz
 C   -4.689006    3.251028   -1.585074
 C   -5.142362    2.031514   -2.071761
 C   -3.562571    3.292240   -0.769005
 C   -4.478041    0.858339   -1.724088
 C    0.045323   -1.131018    2.073902
 C    1.402371   -0.868606    1.983749
 C   -2.891300    2.120213   -0.420280
 C    0.140074   -2.448016    0.048305
 C   -3.360950    0.879050   -0.889937
 C   -0.607491   -1.885579    1.101541
 C    2.133847   -1.367185    0.916459
 C    1.513130   -2.179492   -0.047452
 C   -5.520502   -3.056787    1.265865
 C   -5.054115   -1.985908    0.630311
 C   -1.680656    2.195561    0.467160
 C   -0.520900   -3.340270   -0.953896
 C    5.336056    1.495939   -0.187374
 C    1.764609    1.832781   -0.869366
 C    1.651640    3.211532   -0.225900
 C    0.517309    3.314138    0.798002
 C    0.516193    4.648128    1.540874
 C    3.623347   -2.597467   -0.970901
 C    4.033482   -1.230105   -0.456402
 C   -2.670278   -0.421597   -0.561587
 C   -2.096154   -2.068666    1.250572
 C   -4.291640   -0.893960    1.316260
 C    5.906111    0.240625    0.428764
 C    5.535013   -1.053681   -0.305715
 N   -0.766550    3.109755    0.119310
 N   -2.852678   -0.814896    0.882611
 O    0.180836   -4.439063   -1.223856
 O    5.471165    1.512244   -1.530104
 O   -1.544032    1.449464    1.449770
 O   -1.611988   -3.128745   -1.446254
 O    4.828451    2.406180    0.421799
 O    2.206753   -2.664130   -1.102025
 O    3.444908   -1.039477    0.832901
 H   -5.206446    4.170169   -1.838889
 H   -6.010818    1.989014   -2.720677
 H   -3.214518    4.244738   -0.379160
 H   -4.828348   -0.090465   -2.121636
 H   -0.516993   -0.715025    2.903788
 H    1.912540   -0.256753    2.719760
 H   -5.357465   -3.209196    2.330373
 H   -6.097610   -3.815543    0.747488
 H   -5.252673   -1.856501   -0.430976
 H    2.558533    1.818113   -1.622502
 H    0.833442    1.531381   -1.363051
 H    2.007204    1.081988   -0.111465
 H    1.507176    3.984163   -0.995524
 H    2.594936    3.446722    0.276402
 H    0.600315    2.494192    1.516959
 H   -0.296426    4.686629    2.271668
 H    0.396613    5.484715    0.842637
 H    1.464342    4.784878    2.068800
 H    4.026985   -2.787819   -1.966126
 H    3.966110   -3.379693   -0.282462
 H    3.629628   -0.465561   -1.134470
 H   -1.590514   -0.353268   -0.708935
 H   -3.026714   -1.242807   -1.181199
 H   -2.343959   -2.258984    2.298284
 H   -2.502531   -2.875319    0.644541
 H   -4.727570    0.087658    1.114310
 H   -4.277043   -1.043821    2.398810
 H    5.568731    0.212288    1.465184
 H    6.997067    0.346647    0.434282
 H    5.948925   -1.899628    0.254186
 H    5.984121   -1.064394   -1.303474
 H   -0.928812    3.637682   -0.727783
 H   -2.416355   -0.005635    1.386515
 H   -0.325504   -4.943858   -1.882063
 H    5.134257    2.370987   -1.833052
