72 
3zsw_ligand_xtb.xyz
 C   -4.804740    3.461133   -1.120149
 C   -5.425225    2.323983   -1.608547
 C   -3.578910    3.357072   -0.487834
 C   -4.825652    1.086952   -1.446286
 C   -0.128079   -1.272263    2.064571
 C    1.219542   -0.985801    2.122960
 C   -2.969676    2.116772   -0.321308
 C    0.143509   -2.227401   -0.127946
 C   -3.604117    0.961048   -0.796247
 C   -0.689036   -1.860768    0.937888
 C    2.048650   -1.292235    1.052203
 C    1.516880   -1.947189   -0.071369
 C   -5.533716   -2.989779    1.714441
 C   -5.094346   -2.025691    0.927747
 C   -1.647020    2.034095    0.366615
 C   -0.400851   -2.935043   -1.319555
 C    5.794184    1.591727    0.101721
 C    1.113112    1.335084   -1.628508
 C    1.529373    2.603086   -0.889649
 C    0.666155    2.865159    0.347525
 C    1.046185    4.172393    1.033256
 C    3.688116   -2.250886   -0.854856
 C    4.067094   -0.977588   -0.096269
 C   -2.973362   -0.399191   -0.648760
 C   -2.176097   -2.103406    0.944219
 C   -4.257141   -0.880034    1.412854
 C    5.933930    0.368551    0.974527
 C    5.557871   -0.916610    0.225562
 N   -0.732547    2.899598   -0.051531
 N   -2.921175   -0.827988    0.772045
 O    0.395541   -3.889920   -1.770355
 O    6.959045    2.202818   -0.083480
 O   -1.424899    1.207432    1.263119
 O   -1.479583   -2.694426   -1.814681
 O    4.765435    1.988381   -0.385755
 O    2.301241   -2.276098   -1.127200
 O    3.354880   -0.947439    1.136510
 H   -5.270261    4.427034   -1.235314
 H   -6.375519    2.398324   -2.112892
 H   -3.100433    4.242623   -0.096392
 H   -5.311098    0.205409   -1.837024
 H   -0.753079   -1.020515    2.906341
 H    1.653741   -0.510522    2.987012
 H   -5.308467   -3.016519    2.768105
 H   -6.153377   -3.785880    1.342127
 H   -5.352358   -2.017235   -0.120900
 H    1.830196    1.107649   -2.412287
 H    0.133601    1.444921   -2.092378
 H    1.071066    0.492045   -0.941666
 H    1.461136    3.458417   -1.565554
 H    2.567361    2.512629   -0.572100
 H    0.760538    2.031824    1.051227
 H    0.430198    4.336735    1.913848
 H    0.918829    5.012072    0.353353
 H    2.086956    4.133855    1.339512
 H    4.184942   -2.301303   -1.823787
 H    3.962310   -3.128279   -0.254908
 H    3.770142   -0.102883   -0.691277
 H   -1.943854   -0.384877   -1.015139
 H   -3.517182   -1.141413   -1.233746
 H   -2.460728   -2.523008    1.911399
 H   -2.480883   -2.793635    0.157920
 H   -4.764061    0.066041    1.200887
 H   -4.110924   -0.959598    2.492458
 H    5.267646    0.477945    1.831659
 H    6.965133    0.308942    1.318910
 H    5.813898   -1.768759    0.856746
 H    6.124259   -0.990668   -0.703324
 H   -0.969118    3.550223   -0.787054
 H   -2.336879   -0.035423    1.221367
 H    0.020789   -4.315038   -2.558997
 H    6.869117    2.990469   -0.644718
