72 
3zsw_ligand_aiqm1.xyz
 C   -4.736937    3.297458   -1.528664
 C   -5.191720    2.106108   -2.080786
 C   -3.616619    3.288766   -0.704842
 C   -4.529629    0.914121   -1.790412
 C    0.051583   -1.168290    2.026465
 C    1.419051   -0.912484    1.990729
 C   -2.948005    2.099700   -0.403125
 C    0.202344   -2.382950   -0.059891
 C   -3.414633    0.888543   -0.948461
 C   -0.581595   -1.864480    0.994099
 C    2.180696   -1.352354    0.919228
 C    1.574073   -2.117177   -0.093292
 C   -5.657345   -2.911915    1.423978
 C   -5.053783   -1.980703    0.682146
 C   -1.758345    2.143901    0.510477
 C   -0.414578   -3.222979   -1.135530
 C    5.502686    1.353929   -0.454806
 C    1.611867    2.032786   -0.945256
 C    1.539725    3.267629   -0.050985
 C    0.422477    3.216654    0.981788
 C    0.418184    4.420851    1.909193
 C    3.699129   -2.596114   -0.918055
 C    4.142223   -1.256435   -0.378022
 C   -2.741973   -0.432809   -0.687299
 C   -2.071531   -2.071781    1.091607
 C   -4.251672   -0.866581    1.276574
 C    6.021715    0.235624    0.409957
 C    5.632714   -1.134107   -0.147815
 N   -0.881740    3.111363    0.291118
 N   -2.836713   -0.806348    0.764818
 O    0.222510   -4.380431   -1.314020
 O    5.956293    1.265889   -1.725217
 O   -1.623255    1.307366    1.430031
 O   -1.405953   -2.914745   -1.755204
 O    4.754635    2.226633   -0.097195
 O    2.290822   -2.548602   -1.165894
 O    3.502101   -1.046619    0.889502
 H   -5.244005    4.228002   -1.735322
 H   -6.054026    2.095793   -2.730031
 H   -3.275032    4.220558   -0.270345
 H   -4.881709   -0.013039   -2.225780
 H   -0.529351   -0.789657    2.856873
 H    1.905385   -0.360619    2.782741
 H   -5.576893   -2.907169    2.505730
 H   -6.261008   -3.685305    0.972243
 H   -5.164919   -1.994466   -0.394758
 H    2.460349    2.118134   -1.620448
 H    0.708954    1.902120   -1.550593
 H    1.753344    1.125658   -0.347054
 H    1.411352    4.168870   -0.658720
 H    2.481574    3.374637    0.482041
 H    0.512562    2.303485    1.570887
 H   -0.379193    4.338678    2.647806
 H    0.279795    5.343889    1.342555
 H    1.367985    4.485541    2.434928
 H    4.156029   -2.806797   -1.878985
 H    3.925688   -3.392033   -0.204599
 H    3.793047   -0.482181   -1.069140
 H   -1.680408   -0.392463   -0.925650
 H   -3.187728   -1.224674   -1.285507
 H   -2.336704   -2.307615    2.121842
 H   -2.443142   -2.861038    0.437638
 H   -4.696134    0.101091    1.052661
 H   -4.177299   -0.978885    2.358252
 H    5.626387    0.384706    1.413255
 H    7.108469    0.314119    0.446489
 H    5.956081   -1.910440    0.546623
 H    6.138712   -1.293845   -1.101091
 H   -1.053490    3.736086   -0.483056
 H   -2.350733    0.024324    1.240567
 H   -0.220055   -4.835114   -2.042305
 H    5.615513    2.037362   -2.195794
