63 
3zsy_ligand_aiqm1.xyz
 C   -1.100605   -4.743884   -0.289596
 C    0.233100   -5.133685   -0.247344
 C   -1.421075   -3.391851   -0.253052
 C    1.229977   -4.165207   -0.146493
 C    2.063474    1.929383    0.032552
 C    2.019116    2.815831   -1.059634
 C   -0.429954   -2.409577   -0.155604
 C    4.079807    0.835510   -0.807792
 C    0.920812   -2.804032   -0.087677
 C    3.044470    0.949051    0.170213
 C    3.016252    2.689443   -1.989442
 C    4.024346    1.730414   -1.861362
 C   -0.855830   -0.974327   -0.101271
 C    5.166614   -0.182061   -0.721406
 C   -5.835353    1.980705    1.493705
 C   -4.597615    2.874230    1.479171
 C   -5.439155    0.506122    1.497752
 C   -3.705864    2.539610    0.286023
 C   -4.543901    0.178730    0.303409
 C    4.502864    3.024581   -3.588587
 C   -3.298728    1.066656    0.293194
 C    1.936912   -1.842694    2.503985
 C    2.061976   -1.831149    0.026092
 C    2.985669    0.066392    1.389316
 C   -2.374928    0.771371   -0.891726
 N   -1.854606   -0.603091   -0.891058
 N    1.937254   -1.011443    1.272338
 O    6.314544    0.248171   -1.241321
 O   -0.302547   -0.146356    0.660744
 O    5.034745   -1.282736   -0.233680
 O    3.184277    3.373333   -3.154632
 O    4.834175    1.783052   -2.952991
 H   -1.887525   -5.480203   -0.351964
 H    0.500986   -6.178930   -0.286571
 H   -2.464731   -3.102459   -0.268570
 H    2.268178   -4.467644   -0.112211
 H    1.295105    2.010582    0.788043
 H    1.242189    3.557283   -1.156197
 H   -6.457344    2.207351    2.358860
 H   -6.436190    2.187058    0.602817
 H   -4.033637    2.727620    2.406262
 H   -4.884825    3.924501    1.443469
 H   -6.326530   -0.127108    1.483483
 H   -4.898779    0.279427    2.422989
 H   -2.815761    3.175388    0.282914
 H   -4.254633    2.749335   -0.639533
 H   -5.103204    0.345464   -0.623529
 H   -4.264260   -0.883313    0.323534
 H    5.205433    3.790728   -3.256612
 H    4.506983    2.888923   -4.663160
 H   -2.732264    0.870631    1.210859
 H    1.787611   -1.181711    3.352091
 H    2.881746   -2.371100    2.602813
 H    1.118060   -2.552695    2.457567
 H    3.013603   -2.355910    0.044183
 H    2.068187   -1.122670   -0.800798
 H    3.935842   -0.424389    1.590000
 H    2.692089    0.650658    2.259692
 H   -2.906848    0.915098   -1.830058
 H   -1.519122    1.448814   -0.876446
 H   -2.263298   -1.283200   -1.511818
 H    0.955317   -0.560189    1.173645
 H    6.947702   -0.478036   -1.160081
