56 
3zsz_ligand_xtb.xyz
 C    2.448324   -2.727090    3.071116
 C    1.269603   -3.442884    3.190371
 C    2.541334   -1.707502    2.141425
 C    0.195916   -3.141967    2.370221
 C   -1.200139    0.719109   -2.154641
 C   -1.358757    2.101412   -2.061751
 C    1.465746   -1.395032    1.312721
 C   -3.210183    0.300733   -0.851026
 C    0.276477   -2.130087    1.421740
 C   -2.078679   -0.171782   -1.563052
 C   -2.453230    2.557657   -1.371926
 C   -3.375619    1.675317   -0.787557
 C    1.639087   -0.313497    0.298094
 C   -4.191722   -0.594878   -0.190805
 C   -4.045585    3.751643   -0.395708
 C    4.914019    1.272089   -0.455116
 C    1.554346    3.097205    0.273439
 C   -0.389435   -3.514130   -1.093389
 C   -0.930083   -1.818657    0.574812
 C   -1.809452   -1.646196   -1.720277
 C    3.963805    2.355080    0.042042
 C    2.494350    1.955558   -0.106954
 N    2.215731    0.799882    0.732239
 N   -0.685841   -2.098354   -0.861496
 O   -5.373020   -0.024150   -0.028737
 O    1.284361   -0.454480   -0.882376
 O   -3.951789   -1.725638    0.174141
 O   -2.837055    3.834073   -1.124756
 O   -4.339155    2.385940   -0.165725
 H    3.293003   -2.959419    3.699888
 H    1.185972   -4.235226    3.916934
 H    3.469779   -1.165455    2.039071
 H   -0.723870   -3.698102    2.469888
 H   -0.353984    0.338226   -2.703928
 H   -0.662638    2.782778   -2.519215
 H   -4.861654    4.211776   -0.972904
 H   -3.936100    4.273502    0.565980
 H    5.944289    1.598057   -0.344944
 H    4.733376    1.059563   -1.505976
 H    4.787946    0.348196    0.105683
 H    1.730600    3.411044    1.300008
 H    1.722962    3.948770   -0.378445
 H    0.516378    2.786438    0.173186
 H    0.454503   -3.820977   -0.478648
 H   -1.256293   -4.123257   -0.837433
 H   -0.138690   -3.674505   -2.139767
 H   -1.178637   -0.757216    0.659640
 H   -1.795382   -2.397749    0.904187
 H   -2.692922   -2.230681   -1.460594
 H   -1.529957   -1.851687   -2.756058
 H    4.128534    3.268826   -0.528977
 H    4.170211    2.579221    1.091478
 H    2.297351    1.639635   -1.135917
 H    2.469360    0.880837    1.706448
 H    0.187770   -1.493370   -1.078095
 H   -5.994766   -0.619097    0.421445
