35 
3zt4_ligand_ani-2x.xyz
 C  -30.692207   29.026567    0.090594
 C  -30.966674   27.777766   -0.477569
 C  -31.649785   30.022792    0.122793
 C  -33.665385   32.404470    2.124269
 C  -32.220422   27.518151   -1.022718
 C  -32.976982   33.053183    3.153635
 C  -32.925621   29.764480   -0.431486
 C  -33.458835   32.685352    0.769380
 C  -32.515557   33.695451    0.406331
 C  -33.192625   28.502574   -0.999644
 C  -32.064218   34.003857    2.774442
 C  -31.838656   34.314552    1.441533
 C  -34.095447   30.603996   -0.537317
 C  -35.163465   29.808741   -1.207097
 C  -34.297007   31.901858   -0.172213
 C  -32.165094   34.118427   -1.007236
 C  -34.594782   28.425820   -1.526676
 C  -30.439565   35.510378    2.681124
 O  -31.111148   34.607784   -1.308356
 O  -36.288408   30.188720   -1.449876
 O  -33.136148   33.942943   -1.923653
 O  -31.290185   34.800219    3.573525
 O  -30.928949   35.325277    1.360027
 H  -29.708353   29.215675    0.513780
 H  -30.199860   27.008298   -0.493054
 H  -31.422476   30.986494    0.570353
 H  -34.403554   31.648599    2.378355
 H  -32.432565   26.545492   -1.463917
 H  -33.156511   32.822351    4.198274
 H  -35.288282   32.298025   -0.402430
 H  -35.200931   27.651296   -1.042120
 H  -34.644934   28.241124   -2.606241
 H  -29.420028   35.108663    2.750578
 H  -30.464537   36.573323    2.930681
 H  -33.856804   33.438004   -1.511070
