35 
3zt4_ligand_dft.xyz
 C    1.869872   -2.562486   -1.140192
 C    3.246485   -2.727655   -0.990068
 C    1.267432   -1.343008   -0.854641
 C   -1.630774    2.005389   -1.112007
 C    4.042179   -1.667617   -0.562174
 C   -2.948921    1.642947   -1.415020
 C    2.056208   -0.282743   -0.404705
 C   -0.848701    1.299859   -0.197669
 C   -1.397565    0.186867    0.502874
 C    3.446718   -0.448184   -0.274336
 C   -3.452257    0.550226   -0.753500
 C   -2.697853   -0.161611    0.177267
 C    1.692513    1.101688   -0.074076
 C    2.978405    1.830349    0.226679
 C    0.534730    1.781348   -0.004452
 C   -0.704714   -0.625699    1.564396
 C    4.122115    0.823126    0.164702
 C   -4.688907   -1.136778   -0.004022
 O   -0.910350   -1.802136    1.707319
 O    3.076817    3.007030    0.488568
 O    0.129392    0.024144    2.394771
 O   -4.702781    0.022224   -0.831898
 O   -3.463501   -1.142528    0.716221
 H    1.259249   -3.393416   -1.478577
 H    3.701784   -3.688031   -1.212446
 H    0.197396   -1.229646   -0.982929
 H   -1.188736    2.855100   -1.622833
 H    5.116224   -1.793504   -0.457777
 H   -3.545768    2.198496   -2.128614
 H    0.646056    2.851873    0.176900
 H    4.896206    1.170362   -0.528555
 H    4.587680    0.744242    1.154478
 H   -4.746978   -2.034853   -0.630391
 H   -5.523208   -1.091440    0.699762
 H    0.241704    0.944832    2.116806
