35 
3zt4_ligand_aiqm1.xyz
 C  -30.829405   28.747966    0.536698
 C  -31.085421   27.544527   -0.110678
 C  -31.721626   29.821148    0.436797
 C  -33.390369   32.196167    2.101356
 C  -32.238103   27.392069   -0.883892
 C  -32.631792   32.849304    3.089761
 C  -32.879280   29.664783   -0.320602
 C  -33.428754   32.641268    0.779810
 C  -32.704856   33.799458    0.399014
 C  -33.126438   28.452187   -0.988331
 C  -31.910640   33.947346    2.689504
 C  -31.949296   34.403386    1.378079
 C  -33.962165   30.616934   -0.616527
 C  -34.907034   29.920881   -1.556317
 C  -34.210837   31.876442   -0.219593
 C  -32.676450   34.320229   -1.011358
 C  -34.400728   28.506182   -1.791477
 C  -30.421680   35.557233    2.463976
 O  -31.690559   34.389422   -1.683157
 O  -35.913381   30.407605   -2.017502
 O  -33.876425   34.720757   -1.500682
 O  -31.122034   34.779213    3.437151
 O  -31.204429   35.542996    1.267317
 H  -29.927206   28.861525    1.121870
 H  -30.384307   26.725299   -0.023359
 H  -31.490716   30.756396    0.930299
 H  -33.945073   31.308316    2.368391
 H  -32.433965   26.461882   -1.402143
 H  -32.614914   32.499334    4.110279
 H  -35.075304   32.352875   -0.678699
 H  -35.157048   27.790551   -1.459756
 H  -34.245607   28.344832   -2.860172
 H  -29.454944   35.088861    2.259614
 H  -30.322164   36.577269    2.818415
 H  -34.543050   34.676057   -0.807087
