35 
3zt4_ligand_xtb.xyz
 C  -30.668631   29.172896    0.059595
 C  -30.779328   28.201577   -0.923158
 C  -31.734076   30.003085    0.360993
 C  -34.103602   32.935782    2.493953
 C  -31.973487   28.021218   -1.607012
 C  -33.340652   33.773692    3.301316
 C  -32.919496   29.855011   -0.346773
 C  -33.711207   32.576972    1.208756
 C  -32.517549   33.103377    0.655273
 C  -33.039881   28.843040   -1.310973
 C  -32.171031   34.257006    2.768834
 C  -31.766063   33.927995    1.469057
 C  -34.187948   30.552108   -0.218218
 C  -35.177282   29.845029   -1.079561
 C  -34.558461   31.656944    0.457642
 C  -32.048461   32.847061   -0.742527
 C  -34.422120   28.805187   -1.883517
 C  -30.260789   35.299631    2.340367
 O  -30.902565   32.652925   -1.026358
 O  -36.356522   30.090576   -1.147066
 O  -32.998496   32.895473   -1.695089
 O  -31.257972   35.104791    3.322699
 O  -30.611476   34.578761    1.178826
 H  -29.739191   29.286863    0.596123
 H  -29.932644   27.571344   -1.150742
 H  -31.640894   30.741362    1.141576
 H  -35.021637   32.525455    2.885290
 H  -32.066229   27.248579   -2.356051
 H  -33.652005   34.036677    4.297753
 H  -35.621476   31.880335    0.459182
 H  -34.893262   27.823652   -1.801937
 H  -34.441191   29.087075   -2.939497
 H  -29.291836   34.939075    2.720290
 H  -30.182448   36.371209    2.101018
 H  -33.886095   33.028937   -1.333063
