52 
3ztd_ligand_ani-2x.xyz
 C   -0.785568   -0.658431    4.000221
 C   -0.950015   -0.598429    2.510078
 C   -0.745852   -1.633753    1.548931
 N   -1.338254    0.513180    1.932290
 O   -1.402711    0.230713    0.580041
 C   -1.057351   -1.045421    0.363200
 C   -1.190902   -1.559644   -1.049192
 C   -0.807074   -0.528734   -2.108783
 O    0.293826   -0.574267   -2.655591
 N   -1.708174    0.439354   -2.399622
 C   -3.123249    0.478559   -2.043329
 C   -3.514850    1.928632   -2.302151
 O   -4.894821    1.974827   -2.588484
 C   -2.602781    2.339048   -3.462516
 C   -1.287090    1.632033   -3.157646
 C   -0.350665    2.511074   -2.289182
 O   -0.767636    3.474121   -1.662457
 N    0.952314    2.108611   -2.287802
 C    1.862257    2.558029   -1.249298
 C    2.107904    1.491610   -0.195072
 C    2.455885    0.189874   -0.573729
 C    2.654088   -0.798707    0.377888
 C    1.980317    1.782253    1.163977
 C    2.195022    0.799257    2.120860
 C    2.533969   -0.496612    1.734619
 C    2.755729   -1.513785    2.799999
 C    3.321267   -3.720826    3.306214
 O    2.656975   -1.294392    3.989679
 O    3.075169   -2.723136    2.312824
 H   -1.161407    0.259667    4.456910
 H   -1.331874   -1.510772    4.414537
 H    0.271646   -0.777806    4.257408
 H   -0.419541   -2.650777    1.732647
 H   -0.539228   -2.423613   -1.186142
 H   -2.222729   -1.904780   -1.207818
 H   -3.725519   -0.179326   -2.683433
 H   -3.287351    0.202150   -1.001464
 H   -3.264165    2.535571   -1.419495
 H   -5.152864    2.901289   -2.667076
 H   -2.477626    3.421989   -3.533363
 H   -3.028428    1.966572   -4.401560
 H   -0.748251    1.313847   -4.056969
 H    1.108149    1.173582   -2.652156
 H    2.805737    2.865623   -1.719202
 H    1.413176    3.443832   -0.790693
 H    2.578285   -0.074966   -1.621570
 H    2.899643   -1.810354    0.069825
 H    1.702923    2.788154    1.477583
 H    2.111111    1.021736    3.181416
 H    3.563367   -4.630421    2.757133
 H    4.152865   -3.425389    3.950322
 H    2.434752   -3.870543    3.927391
