58 
3ztx_ligand_ani-2x.xyz
 N   12.454166    2.870171    6.540606
 C   12.303786    1.869567    5.655718
 N   11.219278    1.623910    4.935824
 C   10.142669    2.390605    5.120957
 C   10.202025    3.528925    5.964689
 C   11.409705    3.682186    6.651104
 O    7.111904    5.205331    6.494675
 C    7.829358    4.291924    6.114649
 C    7.210350    2.972019    5.755366
 C    7.746293    1.968801    4.922631
 N    9.041577    2.019993    4.372522
 C    9.335448    1.235433    3.173834
 C    5.671455    0.706297    5.151771
 C    5.140984    1.694335    5.972443
 C    5.906132    2.813258    6.244062
 C    6.943830    0.853844    4.625382
 N   13.394931    1.059051    5.499637
 C   13.549336   -0.061528    4.667319
 C   12.492424   -0.905011    4.315659
 C   12.720585   -2.006895    3.507455
 C   14.000197   -2.324759    3.035366
 N   14.171529   -3.480870    2.251308
 C   15.525372   -3.980439    2.059113
 C   15.497423   -5.425896    1.577591
 C   14.686988   -5.565574    0.299900
 O   14.650188   -6.944332   -0.027135
 C   13.289542   -4.990885    0.525315
 C   13.374454   -3.556069    1.028631
 C   15.056501   -1.482752    3.405649
 C   14.832744   -0.377794    4.212096
 N    9.198485    4.512939    6.041981
 C    9.605961    5.898688    6.298897
 H   11.540027    4.515625    7.340234
 H    9.593969    0.195725    3.423415
 H    8.479972    1.257444    2.495268
 H   10.200667    1.672940    2.672995
 H    5.090036   -0.179555    4.907854
 H    4.139688    1.599530    6.383296
 H    5.507860    3.617549    6.854599
 H    7.333052    0.070540    3.982365
 H   14.210262    1.387068    5.996306
 H   11.491661   -0.700171    4.678167
 H   11.890006   -2.658666    3.247743
 H   16.060717   -3.926477    3.012752
 H   16.084795   -3.365155    1.324985
 H   15.045441   -6.063611    2.346649
 H   16.518665   -5.786515    1.411672
 H   15.184351   -4.993015   -0.504061
 H   14.147954   -7.040711   -0.846154
 H   12.769590   -5.615222    1.262120
 H   12.705612   -5.022310   -0.404183
 H   13.808723   -2.910470    0.241054
 H   12.371534   -3.170076    1.228077
 H   16.064463   -1.684251    3.055733
 H   15.671804    0.256566    4.490566
 H    8.872461    6.569440    5.855393
 H    9.648384    6.109899    7.374695
 H   10.581288    6.084206    5.845241
