58 
3ztx_ligand_xtb.xyz
 N   12.282424    2.774204    6.406540
 C   12.123261    1.800776    5.502611
 N   10.991705    1.564627    4.840375
 C    9.955868    2.364129    5.049280
 C   10.062038    3.493485    5.886128
 C   11.272463    3.608489    6.563424
 O    7.050515    5.397650    5.916868
 C    7.769501    4.412448    5.896410
 C    7.163462    3.053315    5.895360
 C    7.606167    1.968410    5.132766
 N    8.790488    2.039662    4.375821
 C    8.943372    1.122285    3.265074
 C    5.675825    0.706572    5.864537
 C    5.245197    1.775344    6.630907
 C    5.983661    2.940983    6.627451
 C    6.838715    0.803048    5.124577
 N   13.224335    1.036263    5.315725
 C   13.468389   -0.049663    4.482345
 C   12.533676   -0.555104    3.582864
 C   12.843931   -1.636062    2.786637
 C   14.098666   -2.252663    2.838435
 N   14.351032   -3.371452    2.050530
 C   15.481613   -4.222539    2.341936
 C   15.189108   -5.643076    1.859591
 C   14.866103   -5.659395    0.368105
 O   14.555674   -6.988001    0.006023
 C   13.705159   -4.696696    0.106981
 C   14.066511   -3.310245    0.633317
 C   15.030612   -1.735398    3.741899
 C   14.718435   -0.660305    4.548901
 N    9.124182    4.536284    5.930534
 C    9.654814    5.885492    6.018998
 H   11.448208    4.416114    7.260109
 H    9.186400    0.103933    3.581325
 H    8.020278    1.121723    2.687716
 H    9.757326    1.489252    2.641826
 H    5.107097   -0.211212    5.839827
 H    4.338179    1.706100    7.210892
 H    5.653053    3.805550    7.182843
 H    7.155760   -0.047287    4.543600
 H   13.993915    1.319639    5.908045
 H   11.562891   -0.096522    3.529110
 H   12.087526   -2.022712    2.120526
 H   15.637350   -4.247185    3.420975
 H   16.402783   -3.854321    1.858196
 H   14.328847   -6.043471    2.396739
 H   16.044357   -6.289881    2.054460
 H   15.749918   -5.317456   -0.199617
 H   14.272056   -7.003848   -0.914390
 H   12.819071   -5.067464    0.624870
 H   13.487286   -4.640976   -0.962641
 H   14.952190   -2.941973    0.084736
 H   13.249237   -2.613711    0.451471
 H   16.019209   -2.161007    3.812080
 H   15.461510   -0.280385    5.236530
 H    8.904316    6.561907    5.611432
 H    9.846010    6.169093    7.056206
 H   10.576923    5.958031    5.443983
