58 
3ztx_ligand_dft.xyz
 N   -2.047981   -2.883133   -0.679426
 C   -1.121233   -1.963745   -0.362003
 N   -1.365963   -0.746646    0.130521
 C   -2.632286   -0.426623    0.375301
 C   -3.676958   -1.339589    0.176003
 C   -3.301708   -2.551539   -0.395764
 O   -6.941204   -0.007005    0.693408
 C   -5.749525   -0.016364    0.420109
 C   -5.108690    1.197156   -0.181153
 C   -3.801690    1.640010    0.080905
 N   -2.890611    0.861429    0.848925
 C   -1.760352    1.548795    1.458700
 C   -4.258938    3.657727   -1.187446
 C   -5.547745    3.214010   -1.462536
 C   -5.962068    1.996555   -0.946443
 C   -3.396467    2.880394   -0.426315
 N    0.164592   -2.360225   -0.601452
 C    1.393371   -1.696789   -0.457030
 C    1.563978   -0.473914    0.203211
 C    2.824698    0.096166    0.292398
 C    3.962910   -0.525278   -0.235345
 N    5.220035    0.114650   -0.116569
 C    6.284130   -0.361949   -0.986234
 C    7.441056    0.634993   -1.014733
 C    7.969349    0.897641    0.387134
 O    8.986051    1.876225    0.284936
 C    6.819978    1.339485    1.291368
 C    5.684284    0.320426    1.254536
 C    3.783735   -1.751754   -0.882407
 C    2.520378   -2.317819   -0.999800
 N   -4.989157   -1.134064    0.658462
 C   -5.670581   -2.256907    1.294451
 H   -4.055727   -3.306833   -0.607997
 H   -0.987101    1.842032    0.737552
 H   -2.135346    2.434562    1.976129
 H   -1.303131    0.879923    2.189564
 H   -3.912859    4.612605   -1.571738
 H   -6.226480    3.816696   -2.056886
 H   -6.976272    1.644123   -1.098847
 H   -2.392158    3.240023   -0.238388
 H    0.202709   -3.281672   -1.012850
 H    0.705774    0.033543    0.618770
 H    2.927471    1.066358    0.770149
 H    5.880363   -0.479871   -1.995942
 H    6.662879   -1.352212   -0.663870
 H    7.096151    1.584084   -1.440136
 H    8.248025    0.254751   -1.649627
 H    8.384970   -0.045564    0.785555
 H    9.318310    2.050626    1.173580
 H    6.454964    2.311903    0.941380
 H    7.169387    1.459808    2.325522
 H    6.028074   -0.636147    1.694039
 H    4.850474    0.668554    1.867329
 H    4.630077   -2.284148   -1.302336
 H    2.414035   -3.268037   -1.518526
 H   -6.374459   -1.867701    2.029839
 H   -6.236424   -2.854434    0.570463
 H   -4.926642   -2.887347    1.785845
