22 
3zvv_ligand_ani-2x.xyz
 C   42.597191   13.209907   30.734088
 C   44.030118   13.153338   30.281620
 C   44.384974   12.319873   29.173099
 C   45.681265   12.264065   28.758009
 C   46.223808   11.452432   27.627912
 N   46.570153   13.029446   29.448465
 N   47.895484   13.099049   29.184502
 C   48.358885   13.953451   30.096506
 N   49.724990   14.226407   30.133291
 C   47.360818   14.439502   30.954541
 C   46.191615   13.826535   30.521734
 N   44.902981   13.883940   30.936882
 H   41.947100   13.562792   29.926414
 H   42.243725   12.217557   31.033736
 H   42.509374   13.889430   31.583172
 H   43.623900   11.733483   28.664837
 H   46.999035   10.766237   27.982853
 H   45.425515   10.874366   27.156719
 H   46.686487   12.098321   26.875113
 H   50.178312   13.993374   29.260863
 H   49.949261   15.163819   30.434346
 H   47.459008   15.129578   31.779996
