45 
3zxr_ligand_xtb.xyz
 C   17.310175   91.323946   20.529863
 C   17.574079   92.509971   21.466744
 C   18.786846   92.200846   22.352879
 C   16.343439   92.770235   22.337818
 C   17.908950   93.700945   20.620962
 N   18.943624   93.767149   19.824212
 N   17.184014   94.845495   20.563131
 C   17.813198   95.701857   19.688249
 C   17.330652   97.046759   19.457528
 C   15.964092   97.339740   19.489501
 C   15.555378   98.643950   19.275290
 N   16.387748   99.644741   19.043770
 C   17.683544   99.373207   19.022261
 C   18.207592   98.110037   19.223727
 C   18.912396   94.990992   19.225854
 C   19.907156   95.340619   18.228107
 C   21.201717   94.767980   18.318810
 N   22.167394   95.002498   17.483341
 C   21.943538   95.841598   16.449442
 C   22.992476   96.105453   15.546457
 C   19.652111   96.174409   17.163072
 C   20.678323   96.458195   16.242690
 C   20.506584   97.315629   15.137146
 C   21.543777   97.552477   14.278942
 C   22.792761   96.944026   14.484908
 H   16.444621   91.517917   19.899573
 H   18.173268   91.164581   19.890027
 H   17.124241   90.422220   21.108338
 H   18.979538   93.023244   23.038679
 H   18.609253   91.298207   22.932450
 H   19.665561   92.057627   21.731036
 H   16.508001   93.612242   23.008462
 H   15.462881   92.963986   21.727162
 H   16.139382   91.892859   22.947046
 H   16.365085   95.070980   21.102903
 H   15.232465   96.561559   19.652339
 H   19.273478   97.945236   19.211348
 H   14.504546   98.904014   19.286807
 H   18.333416  100.218665   18.837619
 H   21.414020   94.087869   19.132639
 H   18.672044   96.607710   17.013913
 H   23.943594   95.627864   15.722465
 H   23.597233   97.146099   13.792843
 H   19.542993   97.782715   14.987041
 H   21.409813   98.211650   13.433605
