45 
3zxr_ligand_aiqm1.xyz
 C   16.847450   91.508622   20.588281
 C   17.578343   92.508171   21.502106
 C   18.836492   91.848807   22.074410
 C   16.644088   92.922951   22.643244
 C   17.970264   93.700966   20.668763
 N   19.031054   93.772477   19.894403
 N   17.217319   94.831468   20.553896
 C   17.857636   95.691638   19.681420
 C   17.316601   97.020206   19.401915
 C   15.938220   97.208190   19.252924
 C   15.449157   98.484124   18.999635
 N   16.220681   99.571191   18.892436
 C   17.537063   99.386781   19.045211
 C   18.129397   98.153186   19.302741
 C   18.975576   94.998230   19.269235
 C   19.991029   95.386979   18.282994
 C   21.331692   94.924885   18.443619
 N   22.316796   95.187382   17.619447
 C   22.039964   95.956592   16.522402
 C   23.092863   96.254245   15.623115
 C   19.709874   96.143270   17.170840
 C   20.742011   96.456813   16.253904
 C   20.524007   97.239947   15.090292
 C   21.560206   97.513705   14.234925
 C   22.858780   97.014995   14.506137
 H   15.948494   91.957640   20.155489
 H   17.500518   91.187375   19.776918
 H   16.551162   90.629826   21.163871
 H   19.325876   92.500192   22.800305
 H   18.565832   90.915751   22.572878
 H   19.544208   91.632156   21.276747
 H   17.089990   93.700302   23.267320
 H   15.680474   93.279549   22.271454
 H   16.447639   92.054671   23.271939
 H   16.394522   95.051677   21.085419
 H   15.253719   96.371013   19.314521
 H   19.201844   98.076231   19.418805
 H   14.383913   98.639763   18.874492
 H   18.153713  100.273508   18.960385
 H   21.561224   94.302913   19.301928
 H   18.707561   96.504894   16.970411
 H   24.075063   95.860454   15.849515
 H   23.667908   97.237638   13.822792
 H   19.527849   97.617254   14.888605
 H   21.388932   98.111367   13.348911
