44 
3zxz_ligand_xtb.xyz
 O   17.547691   79.294854   -1.162889
 C   17.604974   80.300256   -0.180900
 C   18.794823   79.981355    0.734227
 N   18.895612   80.927338    1.806455
 C   18.331681   80.849238    3.022733
 N   19.547299   82.077507    1.632364
 C   19.414370   82.750554    2.751035
 C   18.646059   82.024513    3.690612
 C   18.307173   82.448780    5.028097
 N   18.702963   83.669528    5.381388
 C   18.383850   83.988427    6.626689
 N   18.625418   85.103796    7.350027
 N   18.112896   84.938923    8.579459
 N   17.550890   83.807756    8.698663
 C   17.674342   83.140953    7.522638
 N   17.268519   81.926724    7.150479
 C   17.593193   81.604399    5.922496
 C   19.347274   86.287424    6.953337
 C   20.522552   85.873262    6.108879
 C   20.545123   86.108964    4.760597
 C   21.600485   85.624557    3.964814
 C   21.663675   85.810197    2.567337
 C   22.709438   85.271508    1.869630
 C   23.692919   84.556399    2.578126
 N   23.672123   84.369221    3.866958
 C   22.647269   84.881492    4.576171
 C   22.608666   84.666027    5.969925
 C   21.570569   85.149238    6.712743
 H   16.848269   79.501005   -1.791103
 H   16.679107   80.320529    0.414193
 H   17.753349   81.291425   -0.629960
 H   19.712630   80.024407    0.144879
 H   18.673634   78.973956    1.137464
 H   17.768938   79.989508    3.324939
 H   19.862420   83.713538    2.880770
 H   17.280651   80.620895    5.601881
 H   19.656504   86.791586    7.872912
 H   18.679269   86.947878    6.389778
 H   19.741734   86.653148    4.283893
 H   20.882058   86.368292    2.069626
 H   22.790003   85.383834    0.799715
 H   24.533876   84.121435    2.052617
 H   23.412535   84.103977    6.418289
 H   21.534078   84.972296    7.778618
