36 
3zyf_ligand_xtb.xyz
 C   -0.484024   -0.372176   -0.742824
 C   -1.516513   -1.347135   -1.330038
 O   -1.137030   -1.809451   -2.600944
 C   -2.856951   -0.617942   -1.470785
 O   -3.868816   -1.498493   -1.885826
 C   -3.267775   -0.042039   -0.105319
 O   -3.573745   -1.077665    0.785816
 C   -2.124587    0.809236    0.463142
 C   -2.408161    1.251756    1.904874
 O   -1.378482    2.056078    2.406027
 O   -0.898554    0.096397    0.505831
 O    0.706384   -1.088954   -0.600985
 C    1.836051   -0.452799   -0.187126
 C    1.912379    0.895712    0.155863
 C    3.121344    1.435884    0.545623
 C    4.254917    0.634957    0.595564
 C    4.186086   -0.715168    0.261415
 C    2.982578   -1.253127   -0.128569
 N    5.511478    1.204010    0.998198
 O    5.532308    2.384255    1.278013
 O    6.477123    0.470184    1.031513
 H   -0.342710    0.475994   -1.447591
 H   -1.629558   -2.180346   -0.620267
 H   -0.260101   -2.204630   -2.531417
 H   -2.734518    0.197948   -2.200536
 H   -3.538103   -1.978424   -2.655136
 H   -4.147266    0.605908   -0.250239
 H   -4.134668   -1.701359    0.302813
 H   -1.997099    1.694586   -0.182656
 H   -3.317849    1.853303    1.927099
 H   -2.551139    0.351863    2.512808
 H   -0.567313    1.533964    2.391303
 H    1.036018    1.521708    0.137273
 H    3.200195    2.477700    0.816423
 H    5.080135   -1.317170    0.312777
 H    2.897767   -2.294763   -0.392316
