36 
3zyf_ligand_ani-2x.xyz
 C   -0.472574   -0.388340   -0.695721
 C   -1.516426   -1.309016   -1.311766
 O   -1.139536   -1.771800   -2.594521
 C   -2.840634   -0.581136   -1.477515
 O   -3.844324   -1.477697   -1.915075
 C   -3.294824   -0.012811   -0.134589
 O   -3.623421   -1.068136    0.738565
 C   -2.160670    0.807993    0.477378
 C   -2.428625    1.266185    1.902779
 O   -1.291253    1.921841    2.414440
 O   -0.942792    0.057921    0.552450
 O    0.695203   -1.132855   -0.504835
 C    1.838765   -0.478698   -0.131844
 C    1.890043    0.874637    0.207697
 C    3.109036    1.440738    0.557531
 C    4.245625    0.647260    0.569996
 C    4.203131   -0.703687    0.243821
 C    2.991718   -1.269488   -0.108900
 N    5.532209    1.246921    0.940525
 O    5.542607    2.432884    1.222548
 O    6.514083    0.524240    0.944534
 H   -0.255566    0.469074   -1.357231
 H   -1.671978   -2.144658   -0.615220
 H   -0.327769   -2.282188   -2.478240
 H   -2.716109    0.240834   -2.202141
 H   -3.439847   -2.021974   -2.607452
 H   -4.164226    0.647401   -0.297969
 H   -4.146719   -1.688639    0.208467
 H   -1.981204    1.695189   -0.154737
 H   -3.258819    1.981145    1.917171
 H   -2.713138    0.395264    2.510144
 H   -0.557170    1.311304    2.242988
 H    0.996400    1.490521    0.216254
 H    3.189812    2.489779    0.819732
 H    5.115140   -1.289145    0.269795
 H    2.923653   -2.321064   -0.369261
