36 
3zyf_ligand_aiqm1.xyz
 C   -0.479263   -0.369548   -0.683433
 C   -1.494031   -1.300526   -1.325614
 O   -1.099600   -1.710067   -2.621348
 C   -2.814298   -0.570418   -1.480734
 O   -3.819643   -1.438817   -1.967410
 C   -3.276430   -0.052129   -0.126057
 O   -3.610150   -1.127200    0.728421
 C   -2.161599    0.772768    0.518642
 C   -2.476629    1.192341    1.937903
 O   -1.500274    2.092405    2.430553
 O   -0.929977    0.041643    0.582741
 O    0.694126   -1.107412   -0.521845
 C    1.840003   -0.462628   -0.147419
 C    1.932416    0.912607    0.083026
 C    3.167550    1.454511    0.426309
 C    4.272404    0.625323    0.535127
 C    4.188297   -0.745950    0.317125
 C    2.963810   -1.288573   -0.028130
 N    5.564942    1.208233    0.895414
 O    5.609576    2.415301    1.078304
 O    6.518616    0.450259    0.988672
 H   -0.291060    0.509472   -1.320122
 H   -1.628144   -2.151418   -0.654242
 H   -0.306459   -2.243077   -2.541496
 H   -2.674230    0.272472   -2.167207
 H   -3.455154   -1.892750   -2.731106
 H   -4.147558    0.592808   -0.284172
 H   -4.144422   -1.730189    0.202543
 H   -2.013774    1.670247   -0.103535
 H   -3.425136    1.727793    1.942289
 H   -2.569005    0.304513    2.566112
 H   -0.707875    1.587087    2.622774
 H    1.068279    1.555929    0.020068
 H    3.282449    2.511824    0.614911
 H    5.071423   -1.358373    0.419443
 H    2.850620   -2.348660   -0.206709
