24 
3zzf_ligand_aiqm1.xyz
 C   -0.243139   -0.891464   -0.596030
 C   -1.000574   -2.166683   -0.239281
 O   -1.071738   -3.113714   -0.974555
 O   -1.511222   -2.156234    1.005437
 C    1.245981   -1.166490   -0.373852
 C    2.151079   -0.041365   -0.872237
 C    2.340661    1.085649    0.108005
 O    1.935890    1.123276    1.245647
 O    3.054716    2.087347   -0.434521
 C   -1.974038    0.683487   -0.008201
 C   -2.406752    1.802867    0.906969
 O   -2.714148    0.159080   -0.823242
 N   -0.681024    0.272405    0.131791
 H   -0.429756   -0.739077   -1.660522
 H   -1.962426   -3.001502    1.117066
 H    1.411634   -1.350307    0.689381
 H    1.499099   -2.079442   -0.912369
 H    3.151051   -0.421860   -1.091241
 H    1.774530    0.384126   -1.804160
 H    3.155738    2.756331    0.254570
 H   -2.908101    1.366615    1.771167
 H   -1.562728    2.399331    1.253450
 H   -3.119402    2.432772    0.382541
 H   -0.135330    0.574952    0.924489
