24 
3zzf_ligand_ani-2x.xyz
 C   -0.263590   -0.906456   -0.563159
 C   -1.014671   -2.204719   -0.272232
 O   -1.067418   -3.118782   -1.057391
 O   -1.534984   -2.270684    0.965188
 C    1.236289   -1.166926   -0.365899
 C    2.141366   -0.033904   -0.853516
 C    2.322821    1.089771    0.140105
 O    1.838108    1.158850    1.249900
 O    3.130552    2.048519   -0.341747
 C   -1.987774    0.696885   -0.008774
 C   -2.384553    1.857635    0.874797
 O   -2.714391    0.215271   -0.864895
 N   -0.731033    0.212102    0.206948
 H   -0.453916   -0.712503   -1.624280
 H   -1.960453   -3.141981    1.025622
 H    1.437034   -1.370473    0.692491
 H    1.475447   -2.079985   -0.921564
 H    3.145328   -0.417155   -1.069179
 H    1.774633    0.400477   -1.791380
 H    3.204706    2.718030    0.359059
 H   -2.317640    1.587608    1.934688
 H   -1.726380    2.716819    0.703637
 H   -3.410746    2.141746    0.639542
 H   -0.138736    0.579954    0.942341
