24 
3zzf_ligand_xtb.xyz
 C   -0.307147   -1.168085   -0.432270
 C   -0.879763   -2.541644   -0.118015
 O   -0.472347   -3.567644   -0.590678
 O   -1.890045   -2.495778    0.752980
 C    1.228345   -1.220335   -0.340867
 C    1.879645    0.029269   -0.924823
 C    1.804561    1.222173   -0.004535
 O    1.504874    1.204208    1.161031
 O    2.151076    2.343276   -0.638732
 C   -1.307304    1.036722   -0.115067
 C   -1.774630    2.011189    0.940327
 O   -1.310020    1.267344   -1.306182
 N   -0.886773   -0.145758    0.395891
 H   -0.594245   -0.921131   -1.464961
 H   -2.241058   -3.387315    0.909217
 H    1.520513   -1.320885    0.706870
 H    1.563810   -2.103832   -0.884015
 H    2.940096   -0.153529   -1.114758
 H    1.419178    0.311971   -1.872539
 H    2.096834    3.109618   -0.046341
 H   -2.597604    1.580245    1.505413
 H   -0.954274    2.223739    1.622698
 H   -2.104028    2.930879    0.466053
 H   -0.789694   -0.244596    1.393602
