21 
4aci_ligand_ani-2x.xyz
 C  -11.182701    9.509362   37.023133
 O  -12.341863    9.396506   36.693180
 O  -10.245123    9.702781   36.086977
 C  -10.704335    9.402906   38.461179
 C  -11.800219    9.721281   39.488542
 O  -12.997529    8.988700   39.238763
 C  -11.299247    9.367528   40.895338
 C  -12.285800    9.616105   42.036952
 O  -13.531471    9.155603   41.836311
 O  -11.966952   10.145099   43.067625
 C  -12.121226   11.229950   39.425275
 O  -13.419132   11.529988   39.447646
 O  -11.246740   12.055655   39.373104
 H   -9.366657    9.776358   36.487981
 H   -9.877146   10.094555   38.638378
 H  -10.339782    8.379150   38.616615
 H  -13.131639    8.968924   38.266946
 H  -10.395542    9.936032   41.117557
 H  -11.040041    8.299198   40.913498
 H  -13.605914    8.806886   40.927371
 H  -13.892842   10.675333   39.457330
