21 
4aci_ligand_xtb.xyz
 C  -11.170337    9.443219   37.067267
 O  -12.133779    8.867895   36.621922
 O  -10.569647   10.414224   36.403903
 C  -10.658647    9.109285   38.459443
 C  -11.750055    9.575152   39.446503
 O  -12.987693    8.932377   39.205097
 C  -11.315669    9.297804   40.899768
 C  -12.320406    9.812419   41.933518
 O  -13.571042    9.369423   41.773347
 O  -12.016057   10.542711   42.827339
 C  -11.915728   11.110501   39.262490
 O  -13.138055   11.560979   39.458567
 O  -10.988473   11.801982   38.941776
 H   -9.961472   10.939744   36.946895
 H   -9.720420    9.611303   38.690122
 H  -10.535439    8.028315   38.545276
 H  -13.044571    8.699332   38.256554
 H  -10.355667    9.774993   41.094539
 H  -11.213284    8.217428   41.033609
 H  -13.662643    8.811870   40.979652
 H  -13.762819   10.836940   39.652113
