38 
4afj_ligand_xtb.xyz
 C  101.366115   24.370309  -11.098228
 C  103.683585   24.937219  -10.811397
 C  101.571799   23.185657  -10.434746
 C  103.891879   23.745733  -10.144554
 C  107.029764   30.864604  -14.846480
 C  106.429758   28.564948  -14.983381
 C  107.549750   30.743873  -16.126192
 C  106.975890   28.557527  -16.255930
 C  100.907766   27.901311  -13.058835
 C  102.421546   25.270144  -11.300411
 C  106.453974   29.748582  -14.253389
 C  102.840495   22.854148   -9.948097
 C  102.163684   26.504915  -12.008789
 C  102.904295   27.609819  -12.402316
 C  104.319085   28.006412  -12.257911
 C  104.187549   21.261183   -8.804139
 C  105.870984   29.800881  -12.864879
 N  107.524027   29.620465  -16.820558
 N  102.060236   28.471423  -13.069179
 N  104.555108   29.216312  -12.807314
 O  105.186230   27.349071  -11.706574
 O  100.891020   26.719619  -12.441616
 O  102.935863   21.660105   -9.311072
 H  100.381533   24.610923  -11.468822
 H  104.506387   25.618232  -10.956801
 H  100.764255   22.488561  -10.276090
 H  104.882578   23.523190   -9.781640
 H  107.075197   31.807517  -14.322234
 H  105.999159   27.670797  -14.559477
 H  108.007030   31.589714  -16.623014
 H  106.978399   27.657111  -16.856243
 H  100.002876   28.282763  -13.487726
 H  104.931961   21.168399   -9.600977
 H  104.553160   21.957939   -8.043530
 H  104.023274   20.285554   -8.349513
 H  105.832579   30.835035  -12.508412
 H  106.497643   29.211002  -12.185560
 H  103.786368   29.664007  -13.285374
