38 
4afj_ligand_ani-2x.xyz
 C  101.252054   24.681225  -11.008430
 C  103.624596   25.073393  -11.106502
 C  101.472835   23.394677  -10.564014
 C  103.857515   23.777760  -10.659021
 C  105.878250   29.362063  -15.293267
 C  107.888685   29.133948  -14.042407
 C  106.576440   28.878137  -16.393385
 C  108.494987   28.660613  -15.201116
 C  100.711769   28.487248  -12.331816
 C  102.326871   25.542503  -11.287496
 C  106.543475   29.496164  -14.077135
 C  102.782745   22.934301  -10.386447
 C  102.059660   26.901705  -11.759472
 C  102.766898   28.022872  -12.139453
 C  104.224150   28.336090  -12.223653
 C  104.205614   21.152995   -9.754274
 C  105.851376   30.036075  -12.839319
 N  107.863329   28.528081  -16.367539
 N  101.868348   29.015718  -12.499993
 N  104.489551   29.581558  -12.687331
 O  105.118118   27.559589  -11.908639
 O  100.734732   27.223712  -11.890786
 O  102.902012   21.656768   -9.946917
 H  100.233981   25.031290  -11.143982
 H  104.459060   25.733079  -11.318080
 H  100.650993   22.718588  -10.344719
 H  104.880134   23.441467  -10.527880
 H  104.829167   29.626320  -15.393315
 H  108.460336   29.216300  -13.121542
 H  106.070412   28.766306  -17.351160
 H  109.545375   28.372276  -15.187397
 H   99.738221   28.930560  -12.500632
 H  104.778645   21.153324  -10.690914
 H  104.752707   21.733056   -8.999370
 H  104.084091   20.126945   -9.404490
 H  105.833623   31.130801  -12.859777
 H  106.422617   29.727454  -11.960742
 H  103.709430   30.190041  -12.888989
