69 
4amy_ligand_ani-2x.xyz
 C    1.692500   -0.534800   -1.791800
 C    3.043200   -1.039700   -2.294300
 C    4.160200   -0.997700   -1.235700
 C    3.799300   -1.650700    0.080000
 C    3.489800   -3.012300    0.156700
 C    3.747500   -0.893600    1.254000
 C    3.146900   -3.599900    1.370900
 C    3.404700   -1.476000    2.471100
 C    3.105400   -2.833600    2.532300
 C    1.739900    0.937800   -1.406400
 O    2.574400    1.674600   -1.917400
 C   -1.009100   -0.283700   -0.205700
 O   -1.370200   -0.081600   -1.367600
 C    0.110900    0.558600    0.439200
 C   -0.402800    1.529900    1.522800
 C    0.490800    2.765600    1.372000
 C    0.848900    2.826100   -0.119000
 C   -0.048600    3.782700   -0.967400
 C    0.321600    3.680400   -2.455400
 C    0.221400    5.232500   -0.522700
 C   -1.543500    3.470300   -0.807500
 N    0.799000    1.414100   -0.524900
 C   -3.956300   -1.306500   -0.250300
 O   -3.907700   -0.852400   -1.584400
 C   -5.235500   -2.142200   -0.201500
 O   -6.315500   -1.392500   -0.690900
 C   -2.697900   -2.105600    0.135200
 C   -2.909200   -3.018900    1.348300
 C   -1.527500   -3.148800    1.972200
 C   -0.967700   -1.735900    1.829700
 N   -1.557300   -1.254000    0.569400
 H    1.353500   -1.155100   -0.959000
 H    0.927800   -0.642100   -2.571700
 H    3.354700   -0.434900   -3.152600
 H    2.921200   -2.069900   -2.653700
 H    4.427500    0.048100   -1.052900
 H    5.054500   -1.477700   -1.657300
 H    3.517300   -3.620000   -0.746600
 H    3.980900    0.168600    1.207700
 H    2.908900   -4.660300    1.411100
 H    3.379800   -0.868000    3.373000
 H    2.845900   -3.292400    3.483500
 H    0.848300   -0.118000    0.888100
 H   -1.451600    1.778700    1.336700
 H   -0.342600    1.101600    2.527600
 H    0.009000    3.676600    1.735600
 H    1.411500    2.633700    1.950300
 H    1.883000    3.163400   -0.257000
 H    0.070300    2.698600   -2.871100
 H   -0.231600    4.434800   -3.027100
 H    1.392300    3.845600   -2.612700
 H   -0.350800    5.930800   -1.145300
 H    1.283900    5.485600   -0.631800
 H   -0.066700    5.414800    0.518500
 H   -2.128800    4.126200   -1.462700
 H   -1.891100    3.648600    0.217100
 H   -1.767100    2.430700   -1.077200
 H   -4.057000   -0.458500    0.449400
 H   -3.030600   -0.444700   -1.723500
 H   -5.483300   -2.447500    0.818300
 H   -5.075600   -3.054500   -0.801900
 H   -5.988000   -0.974400   -1.502000
 H   -2.397000   -2.691700   -0.747400
 H   -3.581600   -2.525400    2.063600
 H   -3.356400   -3.979000    1.075400
 H   -0.912700   -3.858500    1.406900
 H   -1.553200   -3.479200    3.014600
 H    0.124300   -1.743600    1.793500
 H   -1.277300   -1.103400    2.671700
