52 
4amz_ligand_xtb.xyz
 C   -1.529636   -0.629080    0.891023
 O   -1.662369   -0.035370    1.957759
 C   -0.423222   -1.677320    0.758108
 C   -0.347523   -2.527274    2.042658
 C    0.746977   -1.876055    2.901014
 C    1.524202   -1.061935    1.919867
 C    0.903291   -0.950554    0.746954
 C   -4.469633    0.252758    1.000839
 O   -4.109345    0.896740    2.195879
 C   -5.873201    0.798251    0.684639
 O   -5.840178    2.181093    0.456747
 C   -3.449743    0.538338   -0.128459
 C   -4.039990    0.438988   -1.535586
 C   -2.836633    0.078193   -2.393699
 C   -2.111344   -0.928052   -1.508293
 N   -2.330623   -0.419547   -0.159590
 C    1.366877   -0.257202   -0.473298
 O    0.986300   -0.571863   -1.591346
 N    2.234629    0.756507   -0.261374
 C    2.911688    1.444981   -1.339690
 C    4.384335    1.124849   -1.344399
 C    4.796121   -0.199753   -1.437986
 C    6.141163   -0.518175   -1.418890
 C    7.090279    0.485018   -1.307908
 C    6.687583    1.805925   -1.216436
 C    5.340071    2.123973   -1.230265
 H   -0.561902   -2.289083   -0.130745
 H   -0.064614   -3.547978    1.783818
 H   -1.304900   -2.552344    2.559105
 H    0.313664   -1.213069    3.653684
 H    1.369264   -2.609016    3.416151
 H    2.480634   -0.640509    2.183136
 H   -4.537261   -0.839545    1.146590
 H   -3.167999    0.678222    2.367340
 H   -6.308671    0.337077   -0.200932
 H   -6.509210    0.566926    1.550914
 H   -5.359876    2.560506    1.205177
 H   -3.044726    1.544634    0.045016
 H   -4.529861    1.363378   -1.829268
 H   -4.763411   -0.376398   -1.575253
 H   -2.204971    0.951219   -2.558440
 H   -3.111663   -0.343617   -3.357456
 H   -1.048993   -0.977582   -1.746791
 H   -2.560674   -1.923684   -1.608535
 H    2.531235    0.962341    0.678416
 H    2.753437    2.523757   -1.243175
 H    2.442114    1.095085   -2.264527
 H    4.052635   -0.978615   -1.529370
 H    6.451086   -1.550204   -1.493355
 H    8.141144    0.237047   -1.293602
 H    7.423897    2.591423   -1.130778
 H    5.029449    3.156699   -1.156892
