52 
4amz_ligand_aiqm1.xyz
 C   -1.468300   -0.750700    0.770000
 O   -1.246000    0.027100    1.706900
 C   -0.651600   -2.049300    0.715700
 C   -0.731300   -2.782600    2.081100
 C    0.567400   -2.411500    2.831400
 C    1.487200   -1.972700    1.723400
 C    0.825200   -1.746700    0.587300
 C   -3.964000    1.027400    1.104600
 O   -3.143600    1.823300    1.931000
 C   -5.193500    1.901500    0.878400
 O   -4.802500    3.102900    0.254200
 C   -3.242100    0.695300   -0.219900
 C   -4.180100    0.416400   -1.397800
 C   -3.347600   -0.428800   -2.352300
 C   -2.547000   -1.327600   -1.412900
 N   -2.401400   -0.521400   -0.183300
 C    1.340200   -1.205300   -0.697000
 O    0.730800   -1.336000   -1.752300
 N    2.521800   -0.534700   -0.620000
 C    3.033100    0.170000   -1.785400
 C    4.342500    0.853400   -1.462100
 C    5.532100    0.123400   -1.448000
 C    6.732700    0.728400   -1.086600
 C    6.756400    2.074200   -0.731000
 C    5.576500    2.811600   -0.743600
 C    4.378700    2.203400   -1.109600
 H   -0.995700   -2.676700   -0.108200
 H   -0.771400   -3.863800    1.911400
 H   -1.632400   -2.505100    2.633200
 H    0.396700   -1.580800    3.526100
 H    0.975700   -3.243100    3.414000
 H    2.561100   -1.868800    1.867400
 H   -4.251400    0.091500    1.611500
 H   -2.312500    1.319300    2.047000
 H   -5.924000    1.418500    0.225300
 H   -5.676600    2.079300    1.850000
 H   -4.014000    3.388300    0.741900
 H   -2.610100    1.565300   -0.452300
 H   -4.553800    1.343600   -1.843400
 H   -5.043100   -0.171300   -1.056500
 H   -2.671800    0.200800   -2.942400
 H   -3.958000   -1.009600   -3.050800
 H   -1.569100   -1.578600   -1.829600
 H   -3.091500   -2.253300   -1.186400
 H    2.880400   -0.291000    0.290500
 H    2.291900    0.896700   -2.142300
 H    3.161400   -0.562600   -2.589000
 H    5.513100   -0.931100   -1.718500
 H    7.652200    0.147200   -1.078700
 H    7.691800    2.545800   -0.438800
 H    5.587000    3.863600   -0.466900
 H    3.458400    2.785000   -1.118200
