39 
4aoi_ligand_ani-2x.xyz
 N   20.724928   81.013744   -1.159112
 C   20.325813   81.189841   -0.085552
 C   19.829381   81.410826    1.249603
 C   19.598562   82.713464    1.697474
 C   19.578048   80.324746    2.096141
 C   19.115507   80.545153    3.384049
 C   18.902015   81.846026    3.839270
 C   19.133448   82.923554    2.983665
 C   18.494529   82.175286    5.215902
 N   18.824869   83.380124    5.619249
 N   18.527910   83.610210    6.898810
 C   17.823254   82.768112    7.736201
 N   17.416220   81.533802    7.300225
 C   17.763741   81.261954    6.078853
 C   18.790919   84.719205    7.648056
 N   18.277047   84.572616    8.833815
 N   17.664782   83.350815    8.903551
 C   19.627775   85.816433    7.087729
 C   21.034698   85.342896    6.808088
 C   21.922205   84.944711    7.761726
 C   21.670832   85.118493    5.539330
 C   21.330719   85.274599    4.196695
 C   22.265223   84.889248    3.248371
 C   22.954512   84.580165    5.811203
 N   23.081189   84.491901    7.175254
 N   23.875189   84.207518    4.924066
 C   23.505688   84.371300    3.655100
 H   19.793490   83.547999    1.029351
 H   19.749315   79.312628    1.742611
 H   18.933661   83.920656    3.356520
 H   18.942016   79.695291    4.039718
 H   17.459485   80.291551    5.685258
 H   19.170480   86.173795    6.155030
 H   19.614917   86.637013    7.811957
 H   21.797073   84.940288    8.838319
 H   23.894107   84.139921    7.651455
 H   20.360073   85.664111    3.894296
 H   22.051783   84.992270    2.187686
 H   24.236597   84.073734    2.906040
