39 
4aoi_ligand_aiqm1.xyz
 N   19.429000   80.596000   -1.781000
 C   19.243000   80.802000   -0.655000
 C   19.032000   81.049000    0.706000
 C   19.503000   82.260000    1.298000
 C   18.346000   80.094000    1.526000
 C   18.138000   80.348000    2.921000
 C   18.611000   81.568000    3.527000
 C   19.296000   82.518000    2.689000
 C   18.424000   81.877000    4.985000
 N   18.848000   83.092000    5.440000
 N   18.677000   83.327000    6.709000
 C   18.106000   82.445000    7.606000
 N   17.656000   81.218000    7.246000
 C   17.824000   80.939000    5.909000
 C   18.986000   84.426000    7.470000
 N   18.623000   84.187000    8.691000
 N   18.094000   82.997000    8.772000
 C   19.640000   85.718000    6.993000
 C   21.162000   85.628000    7.051000
 C   21.956000   85.759000    8.185000
 C   22.064000   85.398000    5.964000
 C   21.856000   85.187000    4.565000
 C   23.026000   84.984000    3.751000
 C   23.359000   85.397000    6.473000
 N   23.288000   85.617000    7.823000
 N   24.491000   85.210000    5.733000
 C   24.315000   85.005000    4.380000
 H   20.020000   82.987000    0.690000
 H   17.983000   79.176000    1.089000
 H   19.659000   83.440000    3.118000
 H   17.621000   79.617000    3.525000
 H   17.495000   79.981000    5.534000
 H   19.333000   85.912000    5.955000
 H   19.306000   86.546000    7.635000
 H   21.594000   85.942000    9.186000
 H   24.069000   85.667000    8.446000
 H   20.864000   85.180000    4.138000
 H   22.935000   84.819000    2.688000
 H   25.190000   84.853000    3.765000
