39 
4aoi_ligand_dft.xyz
 N   20.966322   80.545912   -1.010762
 C   20.561463   80.806620    0.043345
 C   20.059173   81.132643    1.349669
 C   20.829967   81.911524    2.219723
 C   18.799634   80.672078    1.745858
 C   18.316309   80.990601    3.006971
 C   19.081298   81.768924    3.880735
 C   20.341993   82.223411    3.478096
 C   18.579929   82.132866    5.224354
 N   18.966404   83.287307    5.696425
 N   18.534104   83.540595    6.938073
 C   17.724079   82.705199    7.699748
 N   17.312619   81.515931    7.197192
 C   17.736175   81.244136    5.999558
 C   18.789295   84.618882    7.729715
 N   18.174954   84.440898    8.880831
 N   17.503334   83.252967    8.871969
 C   19.662819   85.766633    7.340512
 C   21.030492   85.330413    6.885046
 C   22.026466   84.808140    7.664016
 C   21.521492   85.303357    5.535298
 C   21.030967   85.661213    4.277402
 C   21.854700   85.445331    3.182952
 C   22.821216   84.744528    5.574873
 N   23.104514   84.454746    6.884757
 N   23.630005   84.516706    4.543328
 C   23.128018   84.878294    3.364190
 H   21.807011   82.267532    1.911839
 H   18.203884   80.075816    1.063498
 H   20.938420   82.821957    4.157635
 H   17.326149   80.650382    3.294397
 H   17.451574   80.283187    5.578211
 H   19.177985   86.340905    6.542141
 H   19.717023   86.422397    8.214131
 H   22.044451   84.649480    8.733462
 H   23.974876   84.063359    7.205941
 H   20.036029   86.079132    4.155290
 H   21.525564   85.703125    2.182069
 H   23.771295   84.708873    2.503509
