20 
4aq6_ligand_ani-2x.xyz
 C   17.461747   42.374116    0.389494
 C   16.643122   42.254364   -0.897968
 C   17.363504   42.538163   -2.191240
 C   17.536389   41.552290   -3.154487
 C   18.218354   41.822042   -4.341843
 O   18.355165   40.803208   -5.238963
 C   18.726594   43.097198   -4.564886
 C   18.552487   44.094554   -3.607892
 C   17.873468   43.819443   -2.429111
 O   17.668858   44.746575   -1.446046
 O   16.940787   42.564937    1.454104
 O   18.791981   42.184367    0.298974
 H   15.795680   42.932026   -0.766968
 H   16.238109   41.234816   -0.917976
 H   17.151843   40.550146   -2.985785
 H   18.842946   41.129611   -6.005099
 H   19.261302   43.321142   -5.487454
 H   18.953067   45.092594   -3.786326
 H   18.105178   45.571619   -1.690161
 H   19.047617   42.035990   -0.622767
