20 
4aq6_ligand_xtb.xyz
 C   17.589490   42.122009    0.310476
 C   16.627465   42.423732   -0.841216
 C   17.333345   42.665006   -2.140448
 C   17.645528   41.616486   -2.993009
 C   18.341225   41.834609   -4.178892
 O   18.613625   40.759202   -4.966710
 C   18.732931   43.123810   -4.508942
 C   18.429867   44.177020   -3.663414
 C   17.739769   43.962175   -2.479680
 O   17.433407   44.974973   -1.624549
 O   17.344744   42.386239    1.449992
 O   18.723387   41.499151   -0.035272
 H   16.039307   43.294926   -0.553782
 H   15.959625   41.562178   -0.920991
 H   17.330175   40.609054   -2.765276
 H   19.087759   41.041997   -5.757417
 H   19.272741   43.309606   -5.426938
 H   18.738419   45.179227   -3.927619
 H   17.763408   45.811140   -1.972648
 H   18.781984   41.366662   -0.996065
