44 
4asy_ligand_xtb.xyz
 C   -4.234267    0.159813   -0.294225
 C   -5.348370    0.099387    0.522594
 C   -5.734883   -1.106109    1.083854
 C   -5.003196   -2.251593    0.823136
 C   -3.883788   -2.190354    0.011681
 C   -3.489528   -0.984286   -0.552845
 C   -2.279759   -0.913643   -1.448845
 N   -1.455429    0.260739   -1.177336
 C   -0.792129    0.335642    0.034976
 N   -0.849156   -0.508549    0.968831
 C   -1.388633    1.212102   -2.174602
 O   -2.011421    1.124269   -3.204578
 N   -0.590439    2.306019   -1.918819
 C    0.287204    2.485995   -0.880082
 O    1.044424    3.420990   -0.839309
 C    0.110157    1.527371    0.292551
 N    1.429783    1.046982    0.674602
 O    1.748033    0.718251   -1.503831
 C    2.175545    0.610343   -0.360594
 C    3.509069    0.018680   -0.068895
 C    3.627233   -1.157432    0.664026
 C    4.875243   -1.719750    0.866396
 C    6.005287   -1.112102    0.344226
 C    5.887186    0.053117   -0.395104
 C    1.762487    1.001843    2.073210
 C    4.641182    0.614243   -0.611427
 H   -3.941107    1.099055   -0.740766
 H   -5.918454    0.995211    0.718547
 H   -6.605201   -1.152744    1.720855
 H   -5.300968   -3.195398    1.254999
 H   -3.314752   -3.087915   -0.188493
 H   -2.598075   -0.822823   -2.492178
 H   -1.665173   -1.814785   -1.352037
 H   -1.443633   -1.315100    0.820635
 H   -0.484223    2.939841   -2.704177
 H   -0.294206    2.097845    1.136023
 H    2.742324   -1.634495    1.059954
 H    4.965686   -2.634700    1.433054
 H    6.978103   -1.551471    0.508079
 H    6.766689    0.522588   -0.809587
 H    1.638085    1.995565    2.508746
 H    2.797138    0.692704    2.195527
 H    1.102790    0.298154    2.585772
 H    4.533044    1.516302   -1.194143
