44 
4asy_ligand_ani-2x.xyz
 C   -4.463300   -0.128500   -0.875600
 C   -5.744700   -0.297900   -0.362300
 C   -6.056300   -1.420400    0.399200
 C   -5.079000   -2.380900    0.637000
 C   -3.794900   -2.206200    0.126100
 C   -3.466200   -1.071300   -0.618600
 C   -2.064200   -0.879000   -1.175100
 N   -1.410300    0.381600   -0.780600
 C   -0.770500    0.468900    0.474000
 N   -0.961400   -0.308300    1.459000
 C   -1.482200    1.441100   -1.690700
 O   -2.125200    1.380400   -2.718500
 N   -0.775700    2.577400   -1.337000
 C    0.129500    2.744500   -0.307100
 O    0.777900    3.759300   -0.183900
 C    0.223200    1.606400    0.695400
 N    1.600500    1.117900    0.821100
 O    1.584500    0.612300   -1.382100
 C    2.146100    0.542900   -0.298900
 C    3.469100   -0.151500   -0.135100
 C    3.704400   -1.077600    0.882300
 C    4.937700   -1.715700    0.971700
 C    5.944200   -1.415900    0.057600
 C    5.711100   -0.493700   -0.960200
 C    2.348100    1.587400    1.974800
 C    4.468900    0.119900   -1.068200
 H   -4.234300    0.734000   -1.496000
 H   -6.506400    0.450600   -0.565200
 H   -7.058800   -1.549000    0.798400
 H   -5.310000   -3.265000    1.225800
 H   -3.040100   -2.970200    0.307300
 H   -2.091400   -0.864300   -2.266000
 H   -1.420300   -1.708300   -0.867200
 H   -1.677800   -1.007100    1.254200
 H   -0.783400    3.310100   -2.036000
 H   -0.027300    2.023000    1.673300
 H    2.919600   -1.294800    1.602500
 H    5.114000   -2.443100    1.758900
 H    6.908900   -1.909900    0.134000
 H    6.494800   -0.261300   -1.677500
 H    2.244500    2.676800    2.061000
 H    3.404500    1.346200    1.861900
 H    1.961500    1.119900    2.887900
 H    4.250600    0.819100   -1.871200
