40 
4auj_ligand_xtb.xyz
 O   -3.413851    1.336696   -2.541796
 C   -2.991896    1.404374   -1.194504
 C   -2.473508    0.031268   -0.759891
 O   -1.948057    0.216594    0.542794
 C   -3.582348   -1.028539   -0.750326
 O   -4.092983   -1.302204   -2.032675
 C   -3.013620   -2.340642   -0.194381
 O   -4.028916   -3.306749   -0.060231
 C   -2.409647   -2.099637    1.192256
 O   -3.403034   -1.788553    2.128490
 O    6.882192    3.743118   -0.030878
 C    6.979910    2.435271    0.497534
 C    5.705416    1.737203    0.527253
 C    4.615604    1.227830    0.486203
 C    3.356019    0.583138    0.476406
 C    2.235770    1.213707    1.012825
 C    1.003133    0.587309    1.014242
 C    0.879545   -0.690488    0.482501
 O   -0.288069   -1.415194    0.443508
 C   -1.411360   -0.934410    1.128449
 C    1.994566   -1.322150   -0.068263
 C    3.219369   -0.693046   -0.073812
 H   -3.688679    2.213723   -2.828574
 H   -3.822201    1.691764   -0.536631
 H   -2.180145    2.130286   -1.069564
 H   -1.681766   -0.292682   -1.453358
 H   -4.388971   -0.684044   -0.080478
 H   -4.081553   -0.478036   -2.540544
 H   -2.227387   -2.698790   -0.875337
 H   -4.523580   -3.304451   -0.889307
 H   -1.857659   -3.001008    1.501288
 H   -4.128236   -2.409376    1.966194
 H    6.426919    3.702277   -0.879006
 H    7.361403    2.554457    1.517077
 H    7.703712    1.836456   -0.080727
 H    2.334720    2.204539    1.430949
 H    0.143098    1.098146    1.416667
 H   -1.158905   -0.630251    2.154433
 H    1.873149   -2.310539   -0.482368
 H    4.082247   -1.185566   -0.496823
