40 
4auy_ligand_ani-2x.xyz
 O   -3.368712    1.360162   -2.478928
 C   -2.877675    1.420622   -1.142171
 C   -2.389792    0.037238   -0.747209
 O   -1.931579    0.184917    0.597586
 C   -3.494949   -1.019054   -0.797527
 O   -3.929281   -1.301847   -2.109718
 C   -2.982008   -2.333143   -0.228817
 O   -4.042117   -3.267338   -0.151387
 C   -2.472943   -2.114541    1.187296
 O   -3.543470   -1.743761    2.024688
 O    6.899152    3.792385   -0.181226
 C    6.945753    2.509420    0.406861
 C    5.642834    1.823939    0.441809
 C    4.576602    1.254898    0.463261
 C    3.311199    0.576904    0.497699
 C    2.186881    1.184244    1.064497
 C    0.958405    0.536971    1.101567
 C    0.850439   -0.746639    0.566022
 O   -0.304085   -1.481118    0.550252
 C   -1.450208   -0.984991    1.203825
 C    1.963657   -1.370800   -0.005105
 C    3.178378   -0.713201   -0.037915
 H   -3.873624    2.159467   -2.664268
 H   -3.671750    1.713614   -0.441386
 H   -2.050354    2.136083   -1.056316
 H   -1.568603   -0.268208   -1.413238
 H   -4.331026   -0.676597   -0.163402
 H   -3.984227   -0.451531   -2.577910
 H   -2.170783   -2.712789   -0.867937
 H   -4.511731   -3.212207   -0.997501
 H   -1.981001   -3.031915    1.544604
 H   -4.254015   -2.367542    1.811696
 H    6.604588    3.685394   -1.094183
 H    7.304789    2.661537    1.429142
 H    7.677116    1.861566   -0.099062
 H    2.274655    2.182200    1.485363
 H    0.103009    1.038272    1.539385
 H   -1.193318   -0.719962    2.235150
 H    1.858173   -2.370989   -0.414023
 H    4.042022   -1.199857   -0.481873
