38 
4av4_ligand_ani-2x.xyz
 O   -4.020062   -0.007241    2.331095
 C   -3.798655   -0.471843    1.002079
 C   -2.614969    0.281953    0.418633
 O   -2.477585   -0.225073   -0.909836
 C   -2.834734    1.795077    0.367245
 O   -2.882376    2.390383    1.645710
 C   -1.677698    2.458972   -0.362718
 O   -1.939502    3.840327   -0.520506
 C   -1.543696    1.864871   -1.755575
 O   -2.688499    2.176866   -2.516033
 C   -1.439492    0.345918   -1.667905
 O   -0.177941    0.052708   -1.132992
 C    0.099050   -1.340277   -1.081519
 C    1.490450   -1.529500   -0.672752
 C    2.638308   -1.692047   -0.337714
 C    4.003287   -1.897159    0.056120
 C    4.696427   -0.945030    0.808879
 C    6.014520   -1.195289    1.162047
 C    6.594755   -2.390006    0.750081
 N    5.953492   -3.313729    0.031301
 C    4.690225   -3.065672   -0.302747
 H   -4.886722   -0.305695    2.627492
 H   -4.671115   -0.278379    0.362851
 H   -3.584701   -1.547917    0.989695
 H   -1.715376    0.076515    1.021050
 H   -3.759564    1.991852   -0.202150
 H   -3.398729    1.795384    2.215344
 H   -0.750436    2.297857    0.207779
 H   -2.266144    4.151500    0.337447
 H   -0.627246    2.246203   -2.231452
 H   -2.841817    3.121009   -2.359867
 H   -1.526759   -0.091562   -2.672365
 H   -0.576469   -1.841742   -0.373899
 H   -0.081946   -1.792825   -2.069046
 H    4.205456   -0.024127    1.110474
 H    6.584069   -0.478625    1.746202
 H    7.626464   -2.621520    1.007844
 H    4.185631   -3.832437   -0.889393
