49 
4av5_ligand_ani-2x.xyz
 O    5.736831   -0.118016   -2.751957
 C    4.507996   -0.445051   -2.145062
 C    4.759682   -1.059693   -0.777226
 O    5.653158   -2.140808   -0.964268
 C    5.385167   -0.025565    0.146557
 O    5.559736   -0.669259    1.390016
 C    4.481124    1.205647    0.230445
 O    4.280682    1.735225   -1.080975
 C    5.095722    2.350035    1.018774
 O    5.372684    1.895598    2.341064
 C    3.703269    0.842747   -2.001989
 O    2.404148    0.478021   -1.624614
 C    1.518718    1.587294   -1.547026
 C    0.205642    1.112668   -1.111610
 C   -0.879836    0.737532   -0.739011
 C   -2.172053    0.302464   -0.283817
 C   -3.290218    1.137730   -0.409394
 C   -4.529745    0.726441    0.052764
 C   -4.699464   -0.533073    0.636332
 C   -3.584557   -1.370262    0.744934
 C   -2.337563   -0.959416    0.302101
 C   -6.028885   -0.967614    1.131405
 C   -6.827779   -0.102592    1.885887
 C   -8.069853   -0.509858    2.358967
 C   -8.543057   -1.787042    2.070451
 C   -7.760802   -2.655100    1.313479
 C   -6.511732   -2.250717    0.856190
 H    6.296773   -0.897631   -2.618808
 H    3.927348   -1.147892   -2.762025
 H    3.811408   -1.406392   -0.339263
 H    5.991580   -2.366345   -0.084536
 H    6.352693    0.283566   -0.285350
 H    5.668863    0.029932    2.056759
 H    3.524296    0.911254    0.692162
 H    4.395552    3.194961    1.030473
 H    6.014739    2.660567    0.503589
 H    5.976260    2.515298    2.765154
 H    3.676835    1.374482   -2.962939
 H    1.455138    2.081756   -2.529250
 H    1.900158    2.336407   -0.838813
 H   -3.180792    2.118049   -0.862562
 H   -5.388532    1.384482   -0.056238
 H   -3.694737   -2.349542    1.204703
 H   -1.483146   -1.621361    0.403286
 H   -6.458018    0.893799    2.119127
 H   -8.672828    0.176140    2.948158
 H   -9.516787   -2.104327    2.433970
 H   -8.120218   -3.654848    1.084131
 H   -5.905802   -2.929692    0.259757
