50 
4avj_ligand_aiqm1.xyz
 O    1.622400    3.433200    2.132000
 C    1.739500    3.784900    0.774300
 C    2.557200    2.775400    0.020600
 N    3.000600    2.995500   -1.246900
 N    3.703700    1.972100   -1.628200
 C    3.018400    1.549400    0.428700
 N    3.731600    1.093300   -0.629900
 C    4.454600   -0.156400   -0.806400
 C    3.921900   -0.963400   -1.998100
 C    2.455800   -1.267400   -1.847300
 C    1.495000   -0.540700   -2.552800
 C    0.142200   -0.763200   -2.350300
 C   -0.265900   -1.693900   -1.394500
 C    0.677100   -2.437900   -0.687900
 C    2.026500   -2.222200   -0.925800
 O   -1.619500   -1.817600   -1.193200
 C   -2.085800   -2.164800    0.094300
 C   -3.603700   -1.970300    0.055600
 O   -4.220800   -2.486400    1.230000
 C   -3.955700   -0.485500    0.044500
 O   -5.345700   -0.277900    0.180900
 C   -3.208800    0.228100    1.169500
 O   -3.453000    1.622100    1.112700
 C   -1.716400   -0.014200    1.013400
 O   -1.473300   -1.418500    1.109100
 C   -0.871800    0.643700    2.096100
 O   -0.821200    2.048900    1.946100
 H    0.810900    2.902900    2.218700
 H    2.240300    4.757300    0.716400
 H    0.756500    3.900400    0.292000
 H    2.896300    0.977200    1.339600
 H    4.334000   -0.724200    0.120100
 H    5.517600    0.070300   -0.935400
 H    4.503200   -1.888800   -2.074000
 H    4.101600   -0.392200   -2.913800
 H    1.822800    0.229000   -3.250700
 H   -0.609200   -0.198400   -2.894400
 H    0.371400   -3.159900    0.063200
 H    2.764500   -2.793700   -0.363000
 H   -1.839700   -3.216400    0.291000
 H   -4.000500   -2.444700   -0.851100
 H   -4.093700   -3.442300    1.258700
 H   -3.658900   -0.040800   -0.911400
 H   -5.643900   -0.915700    0.848200
 H   -3.534500   -0.182800    2.138100
 H   -4.409700    1.734000    1.018400
 H   -1.394400    0.381500    0.040200
 H   -1.264000    0.382000    3.087000
 H    0.145100    0.253500    2.023300
 H   -1.720300    2.345600    1.730900
