50 
4avj_ligand_xtb.xyz
 O    0.833127    3.689544    1.372504
 C    0.863531    3.417468   -0.005396
 C    2.035560    2.589468   -0.423543
 N    2.829449    2.926547   -1.463166
 N    3.752310    2.052042   -1.596355
 C    2.528757    1.413910    0.106107
 N    3.608589    1.127196   -0.655761
 C    4.444698   -0.038847   -0.615713
 C    4.064388   -1.003810   -1.756146
 C    2.585085   -1.259802   -1.709161
 C    1.716133   -0.483825   -2.468563
 C    0.350618   -0.597604   -2.311974
 C   -0.173081   -1.498933   -1.389923
 C    0.681229   -2.315250   -0.662558
 C    2.049801   -2.183153   -0.823716
 O   -1.549625   -1.492491   -1.263911
 C   -2.119221   -2.030188   -0.104052
 C   -3.599366   -1.598154   -0.126594
 O   -4.349731   -2.220542    0.888611
 C   -3.686230   -0.085953    0.121228
 O   -5.013450    0.356536    0.207143
 C   -2.923428    0.256886    1.412261
 O   -2.938159    1.644906    1.643021
 C   -1.477202   -0.235817    1.284867
 O   -1.473029   -1.637216    1.068897
 C   -0.658297    0.042511    2.549091
 O   -0.351625    1.402191    2.678655
 H    0.673912    2.866544    1.858786
 H    0.928404    4.382315   -0.513846
 H   -0.066020    2.916749   -0.324878
 H    2.214749    0.803841    0.926301
 H    4.309512   -0.522980    0.354041
 H    5.485374    0.275799   -0.726399
 H    4.629765   -1.928484   -1.636175
 H    4.333631   -0.540680   -2.705539
 H    2.112992    0.236398   -3.168674
 H   -0.328405    0.016596   -2.881521
 H    0.295210   -3.027079    0.048692
 H    2.709426   -2.806816   -0.237252
 H   -2.050339   -3.132879   -0.101321
 H   -4.011295   -1.833241   -1.119176
 H   -4.241459   -3.175738    0.834361
 H   -3.232614    0.448226   -0.720376
 H   -5.493564   -0.277434    0.757142
 H   -3.405042   -0.273231    2.251443
 H   -3.793773    1.978310    1.338404
 H   -0.998717    0.284055    0.440229
 H   -1.208772   -0.327028    3.424415
 H    0.288415   -0.499139    2.482695
 H   -1.181923    1.898375    2.601293
