22 
4avs_ligand_ani-2x.xyz
 O   -1.061052    1.625996    1.244479
 C   -1.360756    1.659930   -0.067597
 O   -2.079072    2.496518   -0.555095
 C   -0.793270    0.478356   -0.840241
 N    0.457464   -0.024261   -0.302090
 C    1.553304    0.786735   -0.308276
 O    1.482251    1.921735   -0.758030
 C    2.829206    0.216698    0.274870
 C    0.345191   -1.356394    0.285082
 C   -1.166275   -1.552636    0.415006
 C   -1.734962   -0.737681   -0.751660
 H   -1.489564    2.406536    1.633594
 H   -0.677010    0.829716   -1.867863
 H    2.742618    0.101571    1.362177
 H    3.639070    0.915160    0.062853
 H    3.072086   -0.764541   -0.145860
 H    0.795991   -2.111071   -0.375033
 H    0.860289   -1.404487    1.250581
 H   -1.454065   -2.605950    0.374926
 H   -1.511960   -1.136871    1.365114
 H   -1.671688   -1.306859   -1.685067
 H   -2.777897   -0.438101   -0.611669
