22 
4avs_ligand_aiqm1.xyz
 O   -1.046500    1.579300    1.278900
 C   -1.362400    1.646100   -0.028800
 O   -2.078600    2.501300   -0.485300
 C   -0.797500    0.487800   -0.839500
 N    0.456200   -0.023900   -0.319200
 C    1.563300    0.770700   -0.362300
 O    1.509900    1.882500   -0.869000
 C    2.828900    0.214500    0.256600
 C    0.332400   -1.327700    0.326600
 C   -1.181600   -1.548200    0.398200
 C   -1.727500   -0.735900   -0.780300
 H   -1.472100    2.349700    1.690400
 H   -0.684100    0.869600   -1.855900
 H    2.734100    0.157200    1.348200
 H    3.645000    0.895200    0.015100
 H    3.066600   -0.787900   -0.114900
 H    0.831000   -2.105200   -0.267700
 H    0.799200   -1.317400    1.317300
 H   -1.447400   -2.605700    0.336900
 H   -1.566300   -1.152000    1.340600
 H   -1.624800   -1.300400   -1.712700
 H   -2.777900   -0.449500   -0.673000
