68 
4aw5_ligand_ani-2x.xyz
 O    9.863043   -7.671804   13.068039
 C   10.720691   -6.895589   12.704199
 N   10.799547   -5.561944   13.097545
 C   11.895908   -4.929798   12.554440
 C   12.311069   -3.611596   12.702305
 C   12.613835   -5.827594   11.757087
 C   13.762822   -5.394801   11.075639
 C   14.184106   -4.078077   11.210285
 N   15.342425   -3.600345   10.601384
 C   16.067682   -4.363787    9.606110
 C   15.325711   -4.546200    8.270177
 C   16.181001   -5.342934    7.297127
 N   17.463999   -4.617841    7.036682
 C   18.262688   -5.211074    5.932582
 C   19.252372   -4.208923    5.349038
 C   18.236541   -4.481792    8.321190
 C   17.423914   -3.705337    9.346743
 C   13.443618   -3.195328   12.034798
 C   11.911886   -7.097661   11.806741
 C   12.193198   -8.272832   11.173824
 C   13.536029   -8.682787   10.782179
 C   13.748005   -9.316497    9.548246
 C   15.028749   -9.661006    9.142129
 C   16.121285   -9.398639    9.963165
 C   15.923271   -8.789287   11.200053
 C   14.645562   -8.436300   11.610177
 C   11.089493   -9.185060   10.796235
 N   10.987287  -10.416137   11.293594
 C    9.850267  -10.893761   10.683011
 C    9.205902  -12.137143   10.792595
 C    9.349411   -9.890023    9.825597
 N   10.169069   -8.785807    9.920413
 C    8.191985  -10.108831    9.059143
 C    7.563570  -11.336165    9.168333
 C    8.064187  -12.334586   10.035881
 O    7.369993  -13.516728   10.154009
 C    7.758584  -14.503264    9.215807
 H   10.123486   -5.152840   13.725617
 H   11.754893   -2.916391   13.327095
 H   14.319408   -6.069777   10.434545
 H   15.352351   -2.598869   10.467599
 H   16.249717   -5.360156   10.033353
 H   15.124766   -3.562563    7.823384
 H   14.359257   -5.036981    8.421791
 H   15.663796   -5.489110    6.344216
 H   16.419931   -6.333346    7.705440
 H   17.206829   -3.660059    6.725989
 H   17.565313   -5.548772    5.159977
 H   18.779841   -6.100728    6.311497
 H   18.721847   -3.303033    5.032598
 H   20.014527   -3.918292    6.079561
 H   19.765235   -4.628395    4.479770
 H   19.188510   -3.987400    8.119549
 H   18.456690   -5.490876    8.692243
 H   17.980631   -3.613604   10.284287
 H   17.251223   -2.689299    8.963120
 H   13.782519   -2.167409   12.145088
 H   12.896644   -9.524477    8.903406
 H   15.177699  -10.142126    8.178682
 H   17.123739   -9.671680    9.643710
 H   16.772246   -8.584200   11.846540
 H   14.503731   -7.944169   12.569352
 H    9.576064  -12.921319   11.444077
 H    7.816103   -9.331934    8.400711
 H    6.666604  -11.561763    8.599467
 H    7.610523  -14.155400    8.184176
 H    8.812721  -14.784071    9.347895
 H    7.127448  -15.376083    9.396164
