68 
4aw5_ligand_xtb.xyz
 O    9.942923   -7.272178   13.468727
 C   10.754682   -6.514212   12.988197
 N   10.956358   -5.225257   13.507226
 C   12.002357   -4.584804   12.897629
 C   12.521211   -3.316264   13.062076
 C   12.546155   -5.471008   11.942563
 C   13.579774   -5.042579   11.127133
 C   14.145097   -3.789284   11.324479
 N   15.305475   -3.386484   10.610421
 C   15.819133   -4.289456    9.630127
 C   15.036576   -4.329045    8.298457
 C   15.544025   -5.480082    7.450644
 N   17.001668   -5.331386    7.176245
 C   17.490391   -6.436471    6.312157
 C   18.856416   -6.156784    5.708506
 C   17.779848   -5.212190    8.438636
 C   17.290035   -4.041543    9.282129
 C   13.609471   -2.933543   12.284699
 C   11.782650   -6.686742   11.954803
 C   12.038976   -7.806280   11.175945
 C   13.384173   -8.016297   10.613934
 C   13.558975   -8.326399    9.265938
 C   14.824978   -8.546130    8.750383
 C   15.941176   -8.457820    9.571753
 C   15.776736   -8.164810   10.917386
 C   14.511914   -7.954376   11.433795
 C   11.100776   -8.806860   10.841884
 N   11.515147   -9.979660   10.266055
 C   10.375059  -10.628656   10.024293
 C   10.148132  -11.885177    9.441764
 C    9.270954   -9.795627   10.453381
 N    9.760055   -8.663166   10.961619
 C    7.953246  -10.239674   10.273362
 C    7.760960  -11.466434    9.705010
 C    8.845504  -12.285261    9.293204
 O    8.449979  -13.488707    8.740422
 C    9.451322  -14.383844    8.346923
 H   10.384653   -4.845018   14.242961
 H   12.104101   -2.630559   13.784841
 H   13.914369   -5.712193   10.356422
 H   15.295167   -2.411824   10.341100
 H   15.770659   -5.282334   10.091134
 H   15.142912   -3.375308    7.773538
 H   13.977153   -4.479945    8.503564
 H   15.017777   -5.522048    6.494426
 H   15.387903   -6.428567    7.978967
 H   17.124326   -4.447402    6.668176
 H   16.763752   -6.575942    5.508770
 H   17.509220   -7.346427    6.914542
 H   18.862442   -5.209626    5.172589
 H   19.644602   -6.146304    6.455692
 H   19.092693   -6.942401    4.996423
 H   18.833898   -5.089118    8.186984
 H   17.648175   -6.143139    8.994860
 H   17.878640   -3.989040   10.196959
 H   17.414358   -3.095832    8.748763
 H   14.046934   -1.954921   12.421422
 H   12.692580   -8.401179    8.628955
 H   14.940470   -8.817869    7.707343
 H   16.931753   -8.653722    9.174466
 H   16.639932   -8.116116   11.567315
 H   14.385494   -7.738497   12.483681
 H   10.990468  -12.488437    9.139006
 H    7.123092   -9.627121   10.591298
 H    6.768239  -11.863601    9.551429
 H   10.078808  -13.965761    7.550340
 H   10.091464  -14.670813    9.189240
 H    8.934660  -15.266846    7.970291
