68 
4aw5_ligand_dft.xyz
 O   -2.460401    3.760681    0.586968
 C   -1.315297    3.500740    0.294456
 N   -0.361424    4.498488    0.008414
 C    0.913558    3.984529   -0.130951
 C    2.118416    4.607024   -0.425292
 C    0.843462    2.590115    0.045999
 C    1.989505    1.833203   -0.136993
 C    3.221354    2.442499   -0.388448
 N    4.423478    1.667121   -0.439568
 C    4.249303    0.239894   -0.399985
 C    3.690698   -0.386605   -1.690144
 C    3.297710   -1.829248   -1.449448
 N    4.460090   -2.635295   -0.905506
 C    4.014827   -4.042958   -0.612857
 C    5.155964   -4.980829   -0.259552
 C    5.116578   -1.977525    0.286541
 C    5.503724   -0.530498    0.000550
 C    3.277346    3.830903   -0.529505
 C   -0.545680    2.214971    0.289288
 C   -1.041452    0.950891    0.525532
 C   -0.131063   -0.126494    1.024142
 C   -0.128321   -1.398200    0.436855
 C    0.709124   -2.402925    0.916288
 C    1.567223   -2.154461    1.989494
 C    1.568910   -0.893300    2.585177
 C    0.719651    0.102935    2.111097
 C   -2.402088    0.539793    0.292284
 N   -2.897794   -0.579047    0.901851
 C   -4.133312   -0.662003    0.370258
 C   -5.160765   -1.610165    0.586649
 C   -4.315908    0.409920   -0.564675
 N   -3.199450    1.166062   -0.604429
 C   -5.527660    0.532756   -1.281749
 C   -6.516070   -0.395190   -1.053671
 C   -6.325653   -1.456905   -0.123837
 O   -7.368119   -2.349337    0.078061
 C   -7.471070   -3.317530   -0.938302
 H   -0.610999    5.473223    0.043386
 H    2.172399    5.683272   -0.560109
 H    1.892416    0.762711   -0.058597
 H    5.045654    1.973992   -1.179348
 H    3.532296    0.048463    0.405845
 H    4.433998   -0.309164   -2.496931
 H    2.798304    0.152067   -2.020401
 H    2.969375   -2.337928   -2.359371
 H    2.501778   -1.897085   -0.700369
 H    5.167239   -2.677341   -1.645662
 H    3.493805   -4.386107   -1.509996
 H    3.280623   -3.961059    0.192759
 H    5.944254   -4.967152   -1.020394
 H    5.597980   -4.760103    0.714555
 H    4.762429   -5.999466   -0.215323
 H    5.980791   -2.588077    0.552125
 H    4.376536   -2.027913    1.092006
 H    5.929558   -0.107557    0.914838
 H    6.280944   -0.481324   -0.775395
 H    4.233364    4.316091   -0.709893
 H   -0.821551   -1.600301   -0.371481
 H    0.655900   -3.396997    0.475929
 H    2.184507   -2.953024    2.399024
 H    2.204975   -0.694302    3.443287
 H    0.709941    1.080115    2.583489
 H   -5.048089   -2.426288    1.293755
 H   -5.670781    1.353683   -1.978433
 H   -7.475528   -0.326831   -1.559817
 H   -7.643180   -2.860767   -1.923974
 H   -6.560566   -3.932161   -0.997922
 H   -8.322592   -3.956758   -0.688346
