27 
4awj_ligand_aiqm1.xyz
 O   -2.168343    2.890383    0.068641
 C   -1.141329    1.923440    0.222554
 C   -0.149531    1.840545   -0.940738
 C    0.434328    0.445599   -0.778726
 C    1.624176    0.425950    0.207193
 N    2.207541   -0.778808    0.315831
 C    3.338016   -1.011625    1.192384
 O    1.979966    1.429195    0.809481
 N   -0.702193   -0.325989   -0.242901
 C   -0.784779   -1.666694   -0.410061
 C   -2.060461   -2.329302    0.055320
 O    0.144511   -2.311110   -0.892099
 C   -1.782676    0.543714    0.220741
 H   -1.793811    3.752366    0.254624
 H   -0.593558    2.075550    1.154474
 H    0.615090    2.613975   -0.893200
 H   -0.699661    1.915879   -1.881338
 H    0.757538   -0.007632   -1.717309
 H    1.772952   -1.545783   -0.182647
 H    3.052805   -1.608921    2.059331
 H    3.700047   -0.045439    1.533838
 H    4.134034   -1.526515    0.655794
 H   -2.940394   -1.837821   -0.357715
 H   -2.037510   -3.369107   -0.255638
 H   -2.135855   -2.280329    1.143023
 H   -2.632973    0.540827   -0.467116
 H   -2.138232    0.247656    1.210157
