27 
4awj_ligand_xtb.xyz
 O   -2.192075    2.859787    0.039025
 C   -1.148605    1.939666    0.236294
 C   -0.147947    1.858493   -0.926198
 C    0.418980    0.453261   -0.783134
 C    1.603004    0.429476    0.211542
 N    2.195387   -0.768569    0.279227
 C    3.295091   -1.044228    1.170351
 O    1.943362    1.410939    0.842799
 N   -0.704133   -0.325327   -0.267031
 C   -0.763839   -1.661694   -0.402928
 C   -2.039780   -2.315714    0.062885
 O    0.170568   -2.299266   -0.872841
 C   -1.735202    0.522812    0.288228
 H   -1.821385    3.748250    0.019252
 H   -0.605502    2.158869    1.165523
 H    0.636768    2.607940   -0.845187
 H   -0.679562    1.973733   -1.871463
 H    0.752095    0.017439   -1.731044
 H    1.782996   -1.540107   -0.240871
 H    3.006469   -1.778498    1.925033
 H    3.572819   -0.111936    1.659833
 H    4.147452   -1.428985    0.608669
 H   -2.896069   -1.897429   -0.461157
 H   -1.978048   -3.381931   -0.135812
 H   -2.176287   -2.156585    1.130372
 H   -2.643850    0.504027   -0.324512
 H   -1.993008    0.225578    1.307045
