74 
4awo_ligand_aiqm1.xyz
 C    5.271441    2.689794    0.495569
 N    5.925335    1.553939   -0.124971
 O    2.001969   -2.625341    1.307802
 C    6.319557    3.728435    0.881556
 N    1.320846   -0.566369    0.667362
 O   -8.623660    2.008437   -0.211815
 C    7.334564    3.227433    1.903526
 N   -2.824853   -0.252507    0.451827
 O    7.744478    0.775835   -1.946770
 C    4.210579    3.309200   -0.421270
 N   -4.761263    0.993027    0.806357
 C    5.344548    0.339547   -0.343018
 N    8.045253   -1.443154   -2.152630
 C    4.109489   -0.003746    0.236510
 C    3.543413   -1.259390    0.067016
 C    2.231693   -1.568500    0.738496
 C   -0.046720   -0.756830    1.146508
 C   -0.858946   -1.660105    0.205088
 C   -2.334689   -1.639338    0.585958
 C   -2.227708    0.418416    1.617446
 C   -0.738003    0.589131    1.332711
 C   -2.501214   -0.566889    2.777754
 C   -2.564333   -1.953276    2.085468
 C   -4.167943   -0.039625    0.190708
 C   -6.032890    1.260358    0.510127
 C   -6.804597    0.528754   -0.390673
 C   -8.211195    0.936806   -0.623788
 C   -9.120632    0.026341   -1.369324
 C  -10.038622    0.680648   -2.384541
 C  -10.603498    0.183387   -1.100993
 C   -4.850178   -0.828635   -0.759286
 C   -6.171666   -0.539300   -1.041738
 C    6.002189   -0.643661   -1.116475
 C    7.315472   -0.357241   -1.750943
 C    5.394700   -1.887983   -1.297339
 C    4.178249   -2.231838   -0.723141
 C    3.577569   -3.587480   -0.968924
 H    4.781808    2.341083    1.412617
 H    6.716824    1.753126   -0.722985
 H    5.796652    4.600828    1.282595
 H    6.830054    4.058735   -0.028170
 H    1.509771    0.202003    0.047763
 H    7.932009    2.408866    1.501799
 H    8.014056    4.028105    2.196904
 H    6.832974    2.863806    2.802362
 H    3.679762    4.112351    0.092280
 H    3.480237    2.565149   -0.744628
 H    4.687824    3.723695   -1.311510
 H    8.986052   -1.229714   -2.435315
 H    7.900359   -2.331074   -1.709804
 H    3.611840    0.733423    0.850738
 H    0.034961   -1.263258    2.107469
 H   -0.757717   -1.295146   -0.823906
 H   -0.459982   -2.675233    0.253343
 H   -2.888790   -2.322642   -0.054365
 H   -2.693038    1.385773    1.772037
 H   -0.257511    1.136526    2.149242
 H   -0.627531    1.174173    0.413026
 H   -3.459259   -0.323609    3.236200
 H   -1.735534   -0.513406    3.553557
 H   -3.548338   -2.404546    2.214778
 H   -1.822572   -2.656094    2.464212
 H   -6.483182    2.104332    1.018912
 H   -8.775032   -0.970472   -1.594900
 H  -10.244269    0.128586   -3.289354
 H   -9.920372    1.749518   -2.494285
 H  -11.199847   -0.716499   -1.118392
 H  -10.860645    0.918741   -0.352494
 H   -4.346751   -1.628670   -1.281273
 H   -6.697152   -1.126210   -1.785516
 H    5.874570   -2.622051   -1.938351
 H    4.172233   -4.144684   -1.695787
 H    2.557508   -3.507671   -1.351737
 H    3.520458   -4.163439   -0.047679
