71 
4awp_ligand_aiqm1.xyz
 C   -5.434681    3.038488   -0.788530
 C   -5.975565    1.646541   -0.618729
 C   -7.005314    1.191131   -1.438612
 C   -7.534156   -0.096947   -1.340827
 C   -8.624222   -0.514684   -2.285835
 O   -8.707330   -1.631040   -2.764659
 N   -9.510880    0.474654   -2.603898
 C   -7.025131   -0.989249   -0.386734
 C   -7.559354   -2.382431   -0.209506
 C   -5.994552   -0.532291    0.432925
 C   -5.465893    0.755332    0.336402
 C   -4.361288    1.177500    1.270557
 O   -4.322055    2.278689    1.801599
 N   -3.414909    0.231575    1.478942
 C   -2.210835    0.520990    2.259136
 C   -1.258095    1.477128    1.514603
 C   -1.498171   -0.775128    2.657264
 C   -0.497908   -1.287286    1.620140
 C   -1.082098   -1.531645    0.212957
 C   -0.991523   -0.144682   -0.474208
 C   -0.296449    0.753439    0.578755
 N    0.478025   -0.211312    1.386981
 C    1.745844   -0.568484    0.949790
 C    2.647145    0.413823    0.489488
 C    3.928467    0.031808    0.141605
 N    2.100093   -1.856853    1.057288
 C    3.340450   -2.200842    0.709626
 C    4.304732   -1.310675    0.252781
 C    5.652612   -1.837340   -0.104537
 O    5.845580   -3.018315   -0.343017
 N    6.652399   -0.911121   -0.163295
 C    8.026398   -1.365110   -0.347132
 C    8.935779   -0.185994   -0.554273
 C    9.755255    0.273560    0.477858
 C   10.560032    1.396373    0.299992
 C   10.550443    2.074599   -0.916010
 C    9.737571    1.621356   -1.952925
 C    8.935763    0.498459   -1.772119
 H   -5.625882    3.640811    0.096122
 H   -4.352162    3.025198   -0.928425
 H   -5.888333    3.523665   -1.654297
 H   -7.394233    1.865111   -2.195974
 H  -10.309549    0.200883   -3.148077
 H   -9.580878    1.298494   -2.036675
 H   -7.084003   -2.866237    0.645690
 H   -7.386358   -2.985248   -1.097254
 H   -8.637210   -2.372347   -0.041683
 H   -5.601874   -1.210812    1.184843
 H   -3.437925   -0.595253    0.911958
 H   -2.565526    1.036606    3.152599
 H   -1.845132    2.216854    0.967409
 H   -0.662289    2.008552    2.259985
 H   -0.935859   -0.584946    3.573716
 H   -2.238961   -1.548106    2.879197
 H    0.001706   -2.169350    2.007139
 H   -0.443395   -2.245853   -0.304264
 H   -2.088262   -1.954422    0.227083
 H   -1.959259    0.258613   -0.776615
 H   -0.368379   -0.202276   -1.365037
 H    0.354191    1.481783    0.098166
 H    2.352615    1.450450    0.422513
 H    4.622914    0.772683   -0.237460
 H    3.598244   -3.249106    0.791631
 H    6.517290   -0.035584    0.312636
 H    8.348624   -1.955314    0.518289
 H    8.034695   -2.034778   -1.204416
 H    9.759614   -0.254384    1.424180
 H   11.191062    1.740093    1.109319
 H   11.173248    2.947789   -1.055896
 H    9.727676    2.142668   -2.901427
 H    8.297310    0.149650   -2.574919
