68 
4awq_ligand_ani-2x.xyz
 C   -6.075923   -1.354216   -0.336832
 C   -6.406229    0.122126   -0.304595
 C   -7.294089    0.608497   -1.283475
 O   -7.675888   -0.306713   -2.218955
 C   -8.544569    0.128739   -3.237467
 C   -7.752150    1.923728   -1.263995
 C   -7.313038    2.787443   -0.261914
 C   -6.406473    2.345650    0.684565
 C   -5.918386    1.036657    0.636211
 C   -4.862594    0.712652    1.662253
 O   -4.866389    1.227770    2.771152
 N   -3.870726   -0.132403    1.261846
 C   -2.746374   -0.437891    2.130940
 C   -2.112975   -1.781017    1.744653
 C   -1.685643    0.677574    2.152550
 C   -0.669132    0.562649    1.018306
 C   -1.291979    0.501100   -0.394939
 C   -1.499697   -1.015439   -0.646689
 C   -1.033001   -1.677769    0.663427
 N   -0.005969   -0.748212    1.162072
 C    1.293253   -0.890489    0.691060
 C    2.267061    0.083383    1.004723
 C    3.563466   -0.113382    0.582556
 N    1.597280   -1.993427   -0.005717
 C    2.849790   -2.151865   -0.418077
 C    3.883944   -1.264732   -0.145559
 C    5.244187   -1.590727   -0.666649
 O    5.408328   -2.396391   -1.571489
 N    6.282720   -0.937375   -0.067683
 C    7.654233   -1.262697   -0.413108
 C    8.557480   -0.054029   -0.326210
 C    8.205613    1.132506   -0.971387
 C    9.043663    2.240644   -0.916822
 C   10.241801    2.178925   -0.209587
 C   10.597768    1.001357    0.439820
 C    9.758873   -0.107874    0.378329
 H   -6.960927   -1.937839   -0.607841
 H   -5.326764   -1.573835   -1.109142
 H   -5.706443   -1.719980    0.624390
 H   -8.707379   -0.732438   -3.887303
 H   -9.507704    0.462140   -2.828854
 H   -8.101543    0.945905   -3.821818
 H   -8.452585    2.280005   -2.011951
 H   -7.682459    3.809855   -0.234328
 H   -6.045366    2.993757    1.477496
 H   -3.816728   -0.391188    0.290408
 H   -3.169794   -0.504290    3.135012
 H   -2.904237   -2.474121    1.430253
 H   -1.636628   -2.216372    2.631350
 H   -1.131607    0.607765    3.096587
 H   -2.188039    1.651489    2.138347
 H    0.048907    1.381774    1.105748
 H   -0.589017    0.916403   -1.124467
 H   -2.212771    1.087807   -0.464569
 H   -2.522223   -1.294781   -0.919590
 H   -0.855416   -1.359913   -1.461350
 H   -0.591466   -2.660099    0.491890
 H    2.003575    0.952187    1.599677
 H    4.307635    0.655231    0.790192
 H    3.066923   -3.042119   -1.001739
 H    6.121035   -0.464349    0.807461
 H    8.036281   -2.075175    0.220938
 H    7.616842   -1.654288   -1.434136
 H    7.265081    1.182732   -1.516015
 H    8.758871    3.158302   -1.426218
 H   10.894933    3.046960   -0.165813
 H   11.531283    0.943814    0.994903
 H   10.038992   -1.030091    0.884964
