68 
4awq_ligand_aiqm1.xyz
 C   -6.159810   -1.426244    0.006055
 C   -6.497578    0.033686   -0.136584
 C   -7.505788    0.400870   -1.048160
 O   -8.024856   -0.624778   -1.784791
 C   -9.066196   -0.310523   -2.689043
 C   -7.923156    1.723142   -1.174101
 C   -7.345974    2.704066   -0.364718
 C   -6.350929    2.368891    0.532908
 C   -5.907433    1.046606    0.629160
 C   -4.772497    0.817795    1.594226
 O   -4.723883    1.394783    2.672390
 N   -3.788717   -0.003636    1.161692
 C   -2.631041   -0.319653    1.997721
 C   -2.004528   -1.656979    1.586454
 C   -1.589533    0.815048    1.985442
 C   -0.602167    0.700219    0.828908
 C   -1.267442    0.632402   -0.568391
 C   -1.456589   -0.885252   -0.825826
 C   -0.958933   -1.546266    0.476406
 N    0.075099   -0.609311    0.944038
 C    1.352860   -0.738528    0.420245
 C    2.323838    0.259284    0.647889
 C    3.608700    0.057602    0.182561
 N    1.645792   -1.871869   -0.233549
 C    2.891562   -2.039635   -0.677865
 C    3.920736   -1.123263   -0.499256
 C    5.266605   -1.441427   -1.054335
 O    5.427132   -2.274197   -1.931728
 N    6.305696   -0.729915   -0.529332
 C    7.668901   -1.093006   -0.899508
 C    8.638956   -0.084471   -0.349826
 C    8.749909    1.178679   -0.936161
 C    9.608537    2.134301   -0.401371
 C   10.367916    1.838028    0.728656
 C   10.266892    0.580315    1.317449
 C    9.405481   -0.373300    0.780229
 H   -7.043738   -2.027832   -0.194761
 H   -5.392421   -1.746430   -0.707757
 H   -5.805274   -1.660581    1.008764
 H   -9.347958   -1.251129   -3.152955
 H   -9.929774    0.112672   -2.170452
 H   -8.727648    0.387066   -3.459166
 H   -8.698344    1.995523   -1.876165
 H   -7.687004    3.728648   -0.441114
 H   -5.904740    3.109703    1.180621
 H   -3.843353   -0.375157    0.232754
 H   -3.027535   -0.398088    3.011101
 H   -2.792066   -2.355847    1.289609
 H   -1.499619   -2.077081    2.458553
 H   -1.021737    0.764470    2.917261
 H   -2.107259    1.775839    1.962360
 H    0.110769    1.521402    0.879460
 H   -0.595161    1.062899   -1.309289
 H   -2.198249    1.199787   -0.598259
 H   -2.477090   -1.166025   -1.092645
 H   -0.811288   -1.207814   -1.642000
 H   -0.523257   -2.523040    0.291931
 H    2.077724    1.160339    1.189370
 H    4.357500    0.827537    0.329079
 H    3.099628   -2.956414   -1.214930
 H    6.174353   -0.287417    0.364151
 H    7.905710   -2.098075   -0.532115
 H    7.708743   -1.138537   -1.985731
 H    8.152788    1.410472   -1.809955
 H    9.684414    3.109388   -0.865060
 H   11.034729    2.580855    1.145203
 H   10.855572    0.341270    2.193628
 H    9.323525   -1.351868    1.238426
