22 
4ayu_ligand_ani-2x.xyz
 C    1.544361    0.699574    0.533170
 O    1.552637    1.917988    0.637698
 C    2.813162   -0.124576    0.472370
 N    0.364551    0.021309    0.451489
 C   -0.879930    0.767548    0.488339
 C   -1.958481   -0.332376    0.458009
 C   -1.269611   -1.496001   -0.263121
 C    0.178358   -1.408470    0.221483
 C   -1.053746    1.725254   -0.680917
 O   -0.464986    1.290547   -1.810925
 O   -1.722985    2.726887   -0.632946
 H    2.802597   -0.949008    1.192863
 H    3.654799    0.534970    0.685073
 H    2.950569   -0.555762   -0.526631
 H   -0.952830    1.385110    1.386322
 H   -2.212289   -0.612739    1.485743
 H   -2.875237    0.007815   -0.032831
 H   -1.726556   -2.462838   -0.038687
 H   -1.306695   -1.339748   -1.344521
 H    0.893389   -1.783515   -0.518438
 H    0.328277   -1.974520    1.151902
 H   -0.659355    1.962549   -2.485343
