44 
4az6_ligand_ani-2x.xyz
 C   -2.682325    3.962506   -2.280038
 C   -3.215943    2.604590   -1.883998
 O   -4.358296    2.236683   -2.160473
 N   -2.348263    1.823010   -1.201514
 C   -2.588159    0.414753   -0.906732
 C   -3.635311    0.204181    0.205847
 O   -4.952599    0.463794   -0.201308
 C   -3.638917   -1.249970    0.659392
 O   -4.487753   -1.408467    1.769707
 C   -2.247207   -1.692878    1.052038
 C   -2.138431   -3.175937    1.382250
 O   -0.803115   -3.514469    1.664821
 O   -1.342211   -1.480443   -0.057216
 C   -1.273894   -0.211583   -0.499063
 N   -0.190417    0.457850   -0.597565
 O    0.888182   -0.349966   -0.211841
 C    2.071391    0.346282   -0.196415
 O    2.185015    1.508847   -0.475075
 N    3.037956   -0.545344    0.190090
 C    4.414642   -0.322843    0.358291
 C    5.002060    0.925294    0.140615
 C    6.372340    1.072347    0.327111
 C    7.164641   -0.000169    0.725671
 C    6.572632   -1.241851    0.941008
 C    5.205214   -1.404888    0.759026
 H   -2.410665    4.544199   -1.392776
 H   -3.454028    4.493582   -2.837334
 H   -1.786818    3.863146   -2.903172
 H   -1.384588    2.116101   -1.076536
 H   -2.968384   -0.097839   -1.803513
 H   -3.355949    0.845729    1.059462
 H   -4.939070    1.131705   -0.918042
 H   -3.979022   -1.862772   -0.194040
 H   -5.341020   -1.031855    1.510557
 H   -1.892011   -1.096410    1.906094
 H   -2.738917   -3.401493    2.267396
 H   -2.539009   -3.767328    0.540417
 H   -0.282566   -3.149015    0.933434
 H    2.703114   -1.477977    0.370288
 H    4.379156    1.756372   -0.169837
 H    6.824396    2.046579    0.156076
 H    8.233739    0.131646    0.866874
 H    7.176759   -2.090138    1.252579
 H    4.744051   -2.375461    0.927642
