40 
4azt_ligand_ani-2x.xyz
 N   15.591706  -56.005599   14.460031
 C   14.832897  -54.777886   14.221699
 C   14.794524  -57.226202   14.444431
 C   16.876865  -56.078061   13.985437
 C   13.608620  -54.749739   15.120861
 O   12.819145  -55.908798   14.953299
 C   13.556371  -57.056587   15.313788
 C   21.485608  -54.495674   13.020089
 C   20.859054  -55.720953   12.867257
 C   20.765729  -53.409252   13.521661
 C   19.518294  -55.876486   13.221287
 C   18.825783  -54.786854   13.742285
 C   18.835246  -57.183713   13.034440
 C   19.433784  -53.529377   13.902175
 O   17.510350  -54.885483   14.081113
 C   18.685150  -52.358138   14.435171
 C   18.720722  -51.147204   13.736799
 C   18.042511  -50.029674   14.208018
 C   17.973187  -52.411675   15.637231
 C   17.312347  -51.288854   16.121766
 C   17.337986  -50.095665   15.406098
 C   17.463053  -57.191555   13.467492
 O   19.409213  -58.154647   12.557032
 H   14.515113  -54.715590   13.167955
 H   15.464355  -53.911559   14.435196
 H   15.386032  -58.052608   14.851810
 H   14.486528  -57.492263   13.419887
 H   12.972992  -53.893641   14.872880
 H   13.921195  -54.657146   16.172874
 H   13.851387  -56.998416   16.373292
 H   12.890920  -57.916394   15.189285
 H   22.527590  -54.375407   12.739878
 H   21.382699  -56.586013   12.468580
 H   21.257985  -52.446836   13.637046
 H   19.273023  -51.090918   12.800427
 H   18.074420  -49.101693   13.643177
 H   17.940417  -53.334905   16.209166
 H   16.767578  -51.350920   17.060519
 H   16.813916  -49.220624   15.781307
 H   16.915607  -58.117988   13.338062
