45 
4b1c_ligand_ani-2x.xyz
 C   -2.348339    0.158321    0.218004
 N   -1.895681    1.568419    0.108697
 C   -2.823700    2.271057   -0.659806
 C   -2.446373   -0.310628    1.660573
 C   -1.453123   -0.753600   -0.601303
 C   -0.138152   -0.944374   -0.192877
 C    0.747660   -1.726663   -0.932824
 C    0.282006   -2.347988   -2.092677
 C   -1.033090   -2.166726   -2.507166
 C   -1.902420   -1.369464   -1.768492
 N   -2.790621    3.441765   -1.151703
 C   -5.231717    1.753567   -1.472077
 C   -3.214088    0.529228    2.637834
 C   -1.730832    0.355068    2.798724
 C    2.163820   -1.862326   -0.508315
 C    2.893906   -0.760197   -0.073763
 C    4.226618   -0.917022    0.301554
 C    4.771882   -2.206456    0.245245
 C    2.820667   -3.094268   -0.531082
 C    5.013043    0.199333    0.742310
 N   -3.718344    0.147987   -0.340650
 N    4.087297   -3.274594   -0.156583
 C   -3.975099    1.311663   -0.798973
 C    5.682662    1.131900    1.114783
 C    6.491403    2.262390    1.565827
 H   -0.917041    1.700716   -0.118274
 H   -2.593764   -1.384682    1.720602
 H    0.199166   -0.496830    0.741812
 H    0.963096   -2.955570   -2.684268
 H   -1.384063   -2.651978   -3.414343
 H   -2.931596   -1.213819   -2.074560
 H   -1.908153    3.906129   -0.929265
 H   -5.665612    2.603764   -0.934338
 H   -5.001679    2.109135   -2.482166
 H   -5.970436    0.950905   -1.533931
 H   -3.897467    0.039606    3.326999
 H   -3.543213    1.496059    2.272175
 H   -1.359285   -0.268943    3.607457
 H   -1.116543    1.216470    2.550155
 H    2.433794    0.224607   -0.052068
 H    5.805969   -2.374720    0.540178
 H    2.286500   -3.989653   -0.846561
 H    6.678794    2.202442    2.642874
 H    7.458870    2.278739    1.053503
 H    5.983677    3.210832    1.362164
