45 
4b1c_ligand_aiqm1.xyz
 C   -2.435517    0.119135    0.129132
 N   -1.900516    1.505281    0.129790
 C   -2.772728    2.335883   -0.547293
 C   -2.680151   -0.412200    1.526803
 C   -1.492500   -0.805000   -0.627808
 C   -0.159629   -0.887686   -0.230980
 C    0.744128   -1.720370   -0.893730
 C    0.289720   -2.477928   -1.978772
 C   -1.041531   -2.402357   -2.379407
 C   -1.933533   -1.571052   -1.707155
 N   -2.705729    3.574605   -0.843095
 C   -5.153521    2.008000   -1.540590
 C   -3.182246    0.498125    2.604818
 C   -1.781846   -0.055361    2.672034
 C    2.159810   -1.810770   -0.459340
 C    2.890247   -0.682457   -0.085323
 C    4.224872   -0.820801    0.304779
 C    4.775506   -2.108949    0.305045
 C    2.821213   -3.043118   -0.415944
 C    5.016186    0.306067    0.694112
 N   -3.749880    0.237561   -0.548398
 N    4.094002   -3.201018   -0.043777
 C   -3.937911    1.457885   -0.875064
 C    5.697451    1.249559    1.026967
 C    6.529772    2.381142    1.431064
 H   -0.907333    1.626361    0.012109
 H   -3.078940   -1.416662    1.512840
 H    0.178467   -0.320618    0.628633
 H    0.983417   -3.115890   -2.512505
 H   -1.381760   -2.994585   -3.219613
 H   -2.970561   -1.515587   -2.003388
 H   -1.825985    3.983496   -0.530992
 H   -5.576303    2.805452   -0.931038
 H   -4.881521    2.463273   -2.492088
 H   -5.892052    1.224934   -1.695775
 H   -3.919755    0.106721    3.290125
 H   -3.275461    1.544431    2.346785
 H   -1.567292   -0.828083    3.395004
 H   -0.972778    0.636287    2.480559
 H    2.430569    0.298787   -0.107195
 H    5.806719   -2.251861    0.600809
 H    2.288044   -3.949492   -0.680777
 H    6.810942    2.292033    2.480060
 H    7.441536    2.415305    0.835421
 H    5.994778    3.321123    1.296559
