52 
4b1d_ligand_ani-2x.xyz
 C   -4.743850    0.895253    0.017073
 C   -3.432658    0.261689    0.403608
 C   -2.240449    0.978109    0.373737
 C   -1.022541    0.395327    0.718984
 C   -1.002085   -0.950494    1.083442
 C   -2.169451   -1.709274    1.126962
 C   -3.373448   -1.081295    0.790885
 O   -4.548822   -1.799128    0.886444
 C   -4.906283   -2.466847   -0.308958
 C   -2.147447   -3.165275    1.512438
 C    0.219415    1.285529    0.698977
 N    0.261336    1.997703   -0.613256
 C    0.153752    3.251626   -0.403519
 C   -0.036777    3.589506    1.055029
 N    0.114883    2.371765    1.691557
 N   -0.286577    4.687521    1.643150
 C    0.209262    4.348500   -1.421229
 C    1.542529    0.542350    0.840276
 C    2.179448    0.395507    2.072676
 C    3.358705   -0.336151    2.165080
 C    3.917672   -0.913179    1.028842
 C    3.299025   -0.759291   -0.214859
 C    2.118076   -0.018526   -0.294138
 C    3.871106   -1.376543   -1.437245
 C    3.060997   -1.937186   -2.424595
 N    3.541504   -2.510952   -3.524824
 C    4.867196   -2.502294   -3.651542
 N    5.748545   -1.990478   -2.794835
 C    5.240928   -1.441305   -1.693230
 H   -4.980801    0.735894   -1.044131
 H   -4.718044    1.977671    0.178270
 H   -5.562320    0.467688    0.603796
 H   -2.237862    2.020695    0.068604
 H   -0.053294   -1.416661    1.333824
 H   -5.060653   -1.760924   -1.136266
 H   -5.841856   -2.993005   -0.107228
 H   -4.140655   -3.194728   -0.610238
 H   -2.042817   -3.821539    0.637197
 H   -1.302859   -3.380221    2.174456
 H   -3.076032   -3.439958    2.021428
 H   -0.400464    2.213257    2.545601
 H   -0.329355    5.442467    0.959689
 H    0.408616    3.967266   -2.426188
 H   -0.740173    4.899087   -1.444099
 H    0.998948    5.064032   -1.161595
 H    1.747666    0.869293    2.949682
 H    3.848792   -0.452674    3.128046
 H    4.827134   -1.503513    1.107956
 H    1.654489    0.174891   -1.254921
 H    1.976402   -1.939916   -2.305834
 H    5.272700   -2.961368   -4.550842
 H    5.958246   -1.010098   -0.993536
