52 
4b1d_ligand_aiqm1.xyz
 C   -3.711548   -0.016124   -1.863737
 C   -2.854187   -0.127108   -0.629810
 C   -1.751474    0.710424   -0.446319
 C   -0.951274    0.607433    0.687506
 C   -1.269218   -0.339886    1.657206
 C   -2.364795   -1.189610    1.513751
 C   -3.148385   -1.067277    0.361249
 O   -4.266081   -1.865432    0.220715
 C   -3.990150   -3.089600   -0.444319
 C   -2.700956   -2.211859    2.568502
 C    0.255321    1.505156    0.904785
 N    0.327623    2.592823   -0.118852
 C    0.220708    3.716214    0.477583
 C    0.013355    3.581632    1.956098
 N    0.136762    2.227739    2.182859
 N   -0.217811    4.449532    2.861264
 C    0.261490    5.046478   -0.200103
 C    1.543022    0.686357    0.816505
 C    2.478180    0.658651    1.853880
 C    3.641444   -0.098804    1.719770
 C    3.881254   -0.821703    0.555380
 C    2.953403   -0.794064   -0.493095
 C    1.790767   -0.038378   -0.348876
 C    3.210922   -1.560198   -1.734998
 C    2.209076   -2.268753   -2.400840
 N    2.432234   -2.968513   -3.514425
 C    3.686363   -2.955268   -3.968837
 N    4.728160   -2.320117   -3.430204
 C    4.477439   -1.629024   -2.316954
 H   -3.410285   -0.737969   -2.627423
 H   -3.625008    0.977449   -2.303102
 H   -4.754962   -0.209343   -1.625066
 H   -1.514485    1.448087   -1.202234
 H   -0.645132   -0.422948    2.541030
 H   -3.604806   -2.912377   -1.452565
 H   -4.931686   -3.631525   -0.504333
 H   -3.260481   -3.684826    0.112288
 H   -2.235985   -3.177534    2.352522
 H   -2.340804   -1.889219    3.545050
 H   -3.775905   -2.369191    2.620651
 H   -0.396811    1.818357    2.933767
 H   -0.253156    5.385252    2.468353
 H    0.462658    4.919139   -1.260862
 H   -0.687447    5.568707   -0.073959
 H    1.035725    5.673230    0.241997
 H    2.303510    1.237618    2.749291
 H    4.365261   -0.122506    2.524350
 H    4.780396   -1.418753    0.461356
 H    1.079287    0.021698   -1.163611
 H    1.194728   -2.277291   -2.014739
 H    3.879176   -3.520108   -4.871814
 H    5.314365   -1.096867   -1.876032
