15 
4b2i_ligand_ani-2x.xyz
 C   26.642325    4.441063   64.246805
 C   27.318309    5.667886   64.363437
 C   26.870349    6.787545   63.629104
 C   25.771021    6.626881   62.815740
 C   25.104325    5.382854   62.712228
 C   25.519924    4.272959   63.417686
 N   27.304168    3.572332   65.064246
 C   28.375086    5.395584   65.290236
 N   28.350517    4.144440   65.696266
 H   25.010152    3.317527   63.340105
 H   27.093919    2.601572   65.231189
 H   27.377511    7.745267   63.703922
 H   29.133183    6.075518   65.657672
 H   25.402535    7.470370   62.238017
 H   24.240678    5.303203   62.057346
