15 
4b2i_ligand_xtb.xyz
 C   26.637875    4.434268   64.245906
 C   27.316942    5.673532   64.360840
 C   26.871849    6.779168   63.633291
 C   25.774886    6.617456   62.821933
 C   25.112916    5.385798   62.717915
 C   25.527017    4.278760   63.421378
 N   27.298538    3.571787   65.060227
 C   28.366284    5.405704   65.279865
 N   28.332780    4.160534   65.676488
 H   25.016377    3.331230   63.340587
 H   27.098516    2.600889   65.234876
 H   27.379697    7.728374   63.711453
 H   29.119422    6.073950   65.647018
 H   25.405843    7.453469   62.246228
 H   24.255059    5.310082   62.065995
