19 
4b32_ligand_xtb.xyz
 C   22.422783    7.606383   -3.490255
 O   23.721604    5.723377   -4.087956
 C   22.577797    6.204875   -3.530014
 C   21.599962    5.389650   -3.020108
 C   20.431818    5.934897   -2.451740
 C   20.275767    7.345426   -2.411769
 C   21.300826    8.156094   -2.945076
 C   19.106269    7.887681   -1.842709
 C   18.132462    7.073493   -1.334836
 C   18.286409    5.679315   -1.374187
 C   19.409230    5.122501   -1.919588
 H   23.212655    8.215230   -3.900782
 H   23.718626    4.758966   -4.060685
 H   21.715662    4.313130   -3.048934
 H   21.182255    9.229641   -2.914688
 H   18.994138    8.962450   -1.815667
 H   17.238538    7.496183   -0.900078
 H   17.508268    5.048909   -0.968897
 H   19.529630    4.048596   -1.950831
