19 
4b32_ligand_ani-2x.xyz
 C   22.432992    7.608884   -3.495440
 O   23.733091    5.731720   -4.093857
 C   22.583000    6.196862   -3.532360
 C   21.607010    5.379347   -3.023297
 C   20.431656    5.935731   -2.451658
 C   20.274081    7.344636   -2.410890
 C   21.308943    8.158138   -2.949221
 C   19.098177    7.895138   -1.838834
 C   18.122029    7.079775   -1.329743
 C   18.277278    5.671839   -1.369472
 C   19.403356    5.116157   -1.916513
 H   23.228387    8.221350   -3.908920
 H   23.726794    4.766145   -4.064883
 H   21.717546    4.295326   -3.049353
 H   21.189865    9.239505   -2.918844
 H   18.985530    8.977399   -1.811720
 H   17.222687    7.505745   -0.892321
 H   17.494425    5.037335   -0.961798
 H   19.527853    4.035769   -1.949676
