19 
4b33_ligand_xtb.xyz
 O   19.143530    9.401979   -2.206882
 C   19.186583    8.044227   -2.115352
 C   20.296374    7.379923   -2.703838
 C   21.322568    8.086620   -3.361133
 C   22.378716    7.420606   -3.917970
 C   18.205237    7.322850   -1.482598
 C   18.283920    5.925850   -1.408568
 C   19.337541    5.257481   -1.963979
 C   20.365177    5.965129   -2.622419
 C   21.469459    5.312261   -3.208427
 C   22.452074    6.021927   -3.840623
 H   18.347241    9.729090   -1.771152
 H   21.251437    9.162015   -3.411989
 H   23.162895    7.967397   -4.420787
 H   17.362766    7.836226   -1.036648
 H   17.496817    5.384858   -0.904338
 H   19.398698    4.180840   -1.907192
 H   21.523407    4.234572   -3.147382
 H   23.292658    5.508850   -4.285222
