19 
4b33_ligand_ani-2x.xyz
 O   19.152357    9.402994   -2.212070
 C   19.175623    8.044426   -2.108980
 C   20.294471    7.384371   -2.702964
 C   21.326575    8.098694   -3.364412
 C   22.385668    7.427085   -3.922630
 C   18.190269    7.328358   -1.474515
 C   18.275874    5.919006   -1.403362
 C   19.331526    5.251171   -1.959940
 C   20.363937    5.967836   -2.621779
 C   21.475284    5.305430   -3.211166
 C   22.459638    6.016908   -3.844636
 H   18.357404    9.740078   -1.777825
 H   21.257342    9.179558   -3.416895
 H   23.174847    7.976825   -4.428702
 H   17.340016    7.838647   -1.023793
 H   17.485164    5.371848   -0.896582
 H   19.397442    4.167319   -1.905201
 H   21.527712    4.220771   -3.148507
 H   23.305951    5.501375   -4.292541
