19 
4b3d_ligand_ani-2x.xyz
 C   18.295845  -24.268123  -20.277129
 C   19.313570  -24.918695  -19.541325
 C   20.176697  -25.830111  -20.121252
 C   20.011582  -26.096077  -21.484242
 N   20.704617  -26.938839  -22.322489
 C   18.148183  -24.545097  -21.626401
 C   19.007247  -25.465627  -22.248487
 C   19.130452  -25.971503  -23.589860
 C   20.166125  -26.856926  -23.589782
 C   17.383098  -23.282568  -19.592061
 H   19.417740  -24.691210  -18.481597
 H   17.365892  -24.046948  -22.197691
 H   17.950631  -22.448628  -19.163717
 H   16.650688  -22.863958  -20.288261
 H   16.831162  -23.757192  -18.772841
 H   20.953405  -26.320532  -19.539226
 H   21.480059  -27.522114  -22.054793
 H   20.577496  -27.449607  -24.396659
 H   18.519511  -25.704245  -24.442187
