10 
4b5s_ligand_ani-2x.xyz
 C  -48.752669  -31.538062  -18.027214
 O  -49.499091  -31.387877  -17.097914
 O  -49.122662  -31.552857  -19.304938
 C  -47.227183  -31.738749  -17.855389
 O  -46.564910  -31.881289  -18.861783
 C  -46.688650  -31.741379  -16.461071
 H  -48.307225  -31.691628  -19.828051
 H  -47.171348  -32.534317  -15.881335
 H  -45.609032  -31.890484  -16.485076
 H  -46.932931  -30.794358  -15.969827
