10 
4b5s_ligand_xtb.xyz
 C  -48.744964  -31.540137  -18.007451
 O  -49.485611  -31.384501  -17.079373
 O  -49.108345  -31.563382  -19.280182
 C  -47.213335  -31.742861  -17.860039
 O  -46.576893  -31.889174  -18.878925
 C  -46.687948  -31.735730  -16.473314
 H  -48.305306  -31.705611  -19.828261
 H  -47.189595  -32.516904  -15.903686
 H  -45.611809  -31.882974  -16.458925
 H  -46.951893  -30.789726  -16.002444
