10 
4b5s_ligand_aiqm1.xyz
 C  -48.739552  -31.537571  -18.023075
 O  -49.479073  -31.386332  -17.091206
 O  -49.128199  -31.549326  -19.297107
 C  -47.221619  -31.740525  -17.859109
 O  -46.558430  -31.884267  -18.864293
 C  -46.687518  -31.743312  -16.464992
 H  -48.324894  -31.688363  -19.825776
 H  -47.182892  -32.525605  -15.891072
 H  -45.611735  -31.894310  -16.475676
 H  -46.941787  -30.801388  -15.980294
