13 
4b5t_ligand_aiqm1.xyz
 C  -21.234308   -5.941518    8.218156
 C  -21.028197   -6.611370    9.567202
 C  -19.641229   -6.434259   10.109484
 O  -18.738097   -5.829655    9.570918
 C  -19.343572   -7.083293   11.477459
 O  -18.090406   -6.874823   11.879045
 O  -20.157440   -7.704922   12.102017
 H  -21.050097   -4.870207    8.283162
 H  -20.548703   -6.344699    7.474335
 H  -22.252579   -6.096155    7.868903
 H  -21.219749   -7.685401    9.525481
 H  -21.717434   -6.230995   10.323637
 H  -17.667287   -6.347104   11.180601
