29 
4b6f_ligand_aiqm1.xyz
 N    0.265967   14.782711  -43.757435
 C   -0.003353   14.643142  -42.200711
 C    7.579834   13.507202  -38.197792
 C    7.700223   14.160468  -39.421973
 C    6.706866   15.037645  -39.851288
 C    5.604524   15.256509  -39.034075
 C    5.467582   14.615623  -37.808383
 C    6.467548   13.739769  -37.392209
 C    1.226269   15.026753  -41.467525
 C    1.449625   16.361796  -41.083970
 C    2.598257   16.721176  -40.404128
 C    3.556923   15.751730  -40.080658
 C    3.344037   14.413483  -40.439949
 C    2.186333   14.064074  -41.123937
 O    4.648885   16.194968  -39.425304
 H   -0.554461   14.525636  -44.304650
 H    0.524370   15.745458  -43.970470
 H    1.047343   14.182874  -44.019154
 H   -0.283537   13.607912  -42.034249
 H   -0.842472   15.295087  -41.980094
 H    8.352404   12.828643  -37.869048
 H    8.566693   13.993332  -40.044735
 H    6.783911   15.565221  -40.791931
 H    4.601423   14.819419  -37.194215
 H    6.375688   13.244149  -36.437081
 H    0.710676   17.126203  -41.301112
 H    2.771865   17.741721  -40.100789
 H    4.067656   13.657960  -40.176412
 H    2.022717   13.021336  -41.377223
