40 
4b6o_ligand_dft.xyz
 C    6.177214    0.480739   -0.533181
 O    5.386127   -0.442855    0.180375
 C    4.065979   -0.519249   -0.122936
 C    3.420269    0.269347   -1.073606
 C    2.052597    0.100315   -1.293937
 C    3.332369   -1.472447    0.594498
 C    1.977560   -1.623126    0.361938
 C    1.308627   -0.833722   -0.582782
 C   -0.178035   -0.999682   -0.807430
 C   -1.041074   -0.641499    0.432012
 C   -2.384661   -1.338911    0.341741
 O   -2.688291   -2.297305    1.022481
 C   -3.368667   -0.781343   -0.666272
 O   -4.579617   -1.480111   -0.633665
 C   -3.594706    0.711906   -0.392887
 O   -4.402304    1.270040   -1.402483
 C   -2.269444    1.461220   -0.374524
 C   -1.311757    0.874166    0.661878
 C    0.004626    1.656728    0.665293
 O    0.733224    1.345035    1.753328
 O    0.364646    2.445053   -0.170929
 O   -1.943195    1.031307    1.922780
 H    5.840986    1.512582   -0.367827
 H    7.191196    0.367491   -0.148180
 H    6.171905    0.268233   -1.609864
 H    3.957710    1.015110   -1.647708
 H    1.559709    0.735334   -2.024162
 H    3.851703   -2.085446    1.323701
 H    1.425490   -2.372303    0.925392
 H   -0.492082   -0.402979   -1.670636
 H   -0.384547   -2.046394   -1.064305
 H   -0.542809   -1.036760    1.323287
 H   -2.917912   -0.863123   -1.669701
 H   -4.476613   -2.147279    0.067086
 H   -4.081363    0.800526    0.588617
 H   -5.211105    0.740554   -1.425429
 H   -2.446344    2.513606   -0.140722
 H   -1.813180    1.429732   -1.368521
 H    1.584503    1.803514    1.669671
 H   -1.327353    0.731629    2.605359
