40 
4b6o_ligand_xtb.xyz
 C    5.589371    1.808561   -0.392775
 O    4.878797    1.248755    0.685517
 C    3.699238    0.618930    0.430046
 C    3.107072    0.506662   -0.822305
 C    1.890674   -0.141428   -0.955800
 C    3.058793    0.052471    1.534381
 C    1.851856   -0.594155    1.385477
 C    1.238466   -0.686905    0.138642
 C   -0.091588   -1.374119   -0.015538
 C   -1.209406   -0.686180    0.791953
 C   -2.408461   -1.596586    0.907392
 O   -2.778962   -2.092292    1.944825
 C   -3.181714   -1.826619   -0.368853
 O   -4.284297   -2.662903   -0.143882
 C   -3.649542   -0.458293   -0.929059
 O   -4.270483   -0.640987   -2.172327
 C   -2.462372    0.481989   -1.104397
 C   -1.710228    0.665979    0.211821
 C   -0.514725    1.608011    0.011579
 O   -0.005286    1.987044    1.189607
 O   -0.100419    2.000475   -1.040905
 O   -2.605470    1.258006    1.130080
 H    5.013757    2.596783   -0.888727
 H    6.490167    2.239766    0.040916
 H    5.870274    1.046996   -1.126967
 H    3.574567    0.921317   -1.700612
 H    1.441213   -0.206200   -1.935204
 H    3.534552    0.130688    2.498974
 H    1.381031   -1.037521    2.250589
 H   -0.359994   -1.414062   -1.070868
 H   -0.005291   -2.401012    0.353061
 H   -0.838499   -0.496166    1.805978
 H   -2.535152   -2.298472   -1.122004
 H   -4.334054   -2.808530    0.816161
 H   -4.357405   -0.023102   -0.206840
 H   -4.915349   -1.353071   -2.072105
 H   -2.834129    1.451104   -1.436010
 H   -1.795308    0.101345   -1.875932
 H    0.750963    2.580395    1.060079
 H   -2.122658    1.493627    1.932637
