40 
4b6o_ligand_ani-2x.xyz
 C    5.802540    1.626094   -0.321085
 O    5.096909    1.031459    0.745567
 C    3.859541    0.532684    0.476210
 C    3.247628    0.570427   -0.773978
 C    1.975969    0.020243   -0.933699
 C    3.185373   -0.044880    1.556697
 C    1.920927   -0.581085    1.376717
 C    1.295291   -0.570945    0.126752
 C   -0.054661   -1.231874   -0.061098
 C   -1.211849   -0.604613    0.750794
 C   -2.364066   -1.587987    0.924077
 O   -2.621179   -2.146542    1.970855
 C   -3.219577   -1.860806   -0.306752
 O   -4.318793   -2.667083    0.018295
 C   -3.719179   -0.549382   -0.923976
 O   -4.359583   -0.821872   -2.153194
 C   -2.571292    0.415918   -1.165829
 C   -1.827198    0.689776    0.140516
 C   -0.780528    1.788261   -0.051366
 O   -0.181063    2.117482    1.111725
 O   -0.520653    2.340966   -1.090195
 O   -2.808952    1.198215    1.035841
 H    5.261076    2.490463   -0.727989
 H    6.755322    1.957973    0.093937
 H    5.987858    0.906983   -1.130055
 H    3.745508    1.018047   -1.628251
 H    1.499767    0.072200   -1.911905
 H    3.677054   -0.059282    2.525305
 H    1.409945   -1.031273    2.228126
 H   -0.316354   -1.235270   -1.125935
 H    0.021014   -2.286323    0.233495
 H   -0.864384   -0.377902    1.764037
 H   -2.583026   -2.355236   -1.063561
 H   -4.185723   -2.920199    0.948448
 H   -4.417251   -0.088949   -0.208972
 H   -5.048925   -1.471907   -1.955196
 H   -2.968081    1.358512   -1.555656
 H   -1.890487    0.025220   -1.931718
 H    0.433390    2.840797    0.900506
 H   -2.342307    1.491991    1.831109
