46 
4b77_ligand_ani-2x.xyz
 C   -4.902850    3.445692    1.399940
 O   -3.758403    2.924994    2.040163
 C   -3.091216    1.921395    1.410513
 C   -1.964511    1.425564    2.071584
 C   -1.220594    0.404544    1.506361
 C   -3.459766    1.378451    0.181266
 C   -2.703204    0.348773   -0.371009
 C   -1.569234   -0.148823    0.268919
 C   -0.809642   -1.339899   -0.312474
 C   -1.524500   -2.661265    0.038206
 C   -0.829080   -2.702969   -2.248401
 N   -0.921190   -1.388124   -1.786275
 N   -0.572550   -3.129321   -3.419930
 C    0.684918   -1.317500    0.068265
 C    1.449564   -0.225850   -0.345616
 C    1.331703   -2.339408    0.769382
 C    2.696307   -2.260034    1.036369
 C    3.441337   -1.167023    0.611676
 C    2.814559   -0.126629   -0.077745
 C    3.564312    1.082000   -0.500539
 C   -1.109050   -3.622227   -1.075270
 C    3.022369    2.360366   -0.372708
 N    3.671645    3.467195   -0.726243
 C    4.886087    3.287030   -1.242336
 N    5.511534    2.126357   -1.428011
 C    4.847363    1.037392   -1.045679
 H   -5.672498    2.674448    1.263463
 H   -4.653633    3.879482    0.422441
 H   -5.286393    4.228031    2.056281
 H   -1.695174    1.862903    3.027745
 H   -0.340016    0.028843    2.025031
 H   -4.333520    1.739434   -0.350624
 H   -3.002122   -0.073547   -1.326232
 H   -1.309510   -3.007211    1.051819
 H   -2.601711   -2.475094   -0.023284
 H   -0.354870   -0.710832   -2.284684
 H   -0.408108   -2.350578   -4.062413
 H    0.965126    0.579920   -0.896722
 H    0.785146   -3.219247    1.094621
 H    3.181130   -3.065702    1.580933
 H    4.502798   -1.102498    0.838238
 H   -0.193398   -4.170880   -0.831617
 H   -1.874118   -4.359691   -1.331008
 H    2.029140    2.495511    0.059368
 H    5.424148    4.183539   -1.543746
 H    5.351075    0.082590   -1.204117
