46 
4b77_ligand_xtb.xyz
 C   -4.438736    3.697674    1.110295
 O   -3.436507    3.014003    1.822690
 C   -2.842608    1.937323    1.240374
 C   -1.858101    1.300291    1.999088
 C   -1.190632    0.204052    1.500734
 C   -3.145381    1.441349   -0.021910
 C   -2.468622    0.336384   -0.511628
 C   -1.480464   -0.288137    0.230981
 C   -0.757519   -1.516421   -0.287451
 C   -1.464076   -2.792408    0.221716
 C   -1.104361   -2.955841   -2.140114
 N   -0.903371   -1.669641   -1.727310
 N   -1.135493   -3.419690   -3.312029
 C    0.729078   -1.416201    0.026806
 C    1.360670   -0.210084   -0.254756
 C    1.494311   -2.472742    0.501015
 C    2.856654   -2.315972    0.701086
 C    3.475601   -1.112128    0.429424
 C    2.725501   -0.041294   -0.052689
 C    3.355924    1.249245   -0.335876
 C   -1.323374   -3.805276   -0.914551
 C    2.735033    2.465753   -0.040899
 N    3.297689    3.632122   -0.299645
 C    4.500163    3.607653   -0.845901
 N    5.190132    2.527224   -1.163574
 C    4.621112    1.361167   -0.916901
 H   -5.292513    3.047643    0.892992
 H   -4.053077    4.117087    0.175402
 H   -4.761399    4.508626    1.761190
 H   -1.637035    1.688685    2.980499
 H   -0.431378   -0.276915    2.099970
 H   -3.905060    1.900810   -0.634333
 H   -2.722106   -0.045066   -1.489740
 H   -1.058478   -3.137141    1.169803
 H   -2.518016   -2.554415    0.374896
 H   -0.513913   -0.973685   -2.343861
 H   -0.952630   -2.739710   -4.045634
 H    0.777916    0.613277   -0.644031
 H    1.043351   -3.426209    0.722920
 H    3.438260   -3.145124    1.076006
 H    4.533434   -0.991451    0.608976
 H   -0.454946   -4.453537   -0.788337
 H   -2.198401   -4.440612   -1.031898
 H    1.761191    2.500984    0.432466
 H    4.963742    4.563209   -1.052743
 H    5.187837    0.485243   -1.207618
