51 
4b78_ligand_ani-2x.xyz
 C   -2.132138   -5.312934   -2.377794
 O   -1.785399   -4.069483   -2.947262
 C   -1.684077   -3.004570   -2.108025
 C   -1.897026   -3.060082   -0.731932
 C   -1.776148   -1.900410    0.028593
 C   -1.449473   -0.673665   -0.547117
 C   -1.208761   -0.646019   -1.923608
 C   -1.331883   -1.787899   -2.698449
 C   -1.328656    0.554575    0.356765
 C   -1.345365    1.911312   -0.394247
 C   -1.974403    2.869055    0.628704
 C   -3.000094    1.966137    1.294867
 N   -2.520213    0.673581    1.195701
 N   -4.090982    2.274400    1.864334
 O   -2.615533    4.003648    0.111238
 C   -1.724598    5.005198   -0.322247
 C   -0.050241    0.469689    1.215019
 C   -0.058105    0.717185    2.590684
 C    1.133563    0.709764    3.308159
 C    2.342370    0.457005    2.669839
 C    2.368840    0.187124    1.300799
 C    1.166288    0.198275    0.591809
 C    3.641489   -0.127142    0.606224
 C    3.705625   -1.126865   -0.364063
 C    4.917331   -1.400777   -0.981074
 C    6.029179   -0.646471   -0.619620
 N    5.992538    0.324170    0.295264
 C    4.825027    0.561219    0.889796
 H   -1.387164   -5.637880   -1.639397
 H   -2.159612   -6.026057   -3.202844
 H   -3.118657   -5.273216   -1.897118
 H   -2.167520   -3.990022   -0.242949
 H   -1.928925   -1.962379    1.105398
 H   -0.921611    0.284527   -2.410340
 H   -1.160167   -1.764977   -3.770098
 H   -0.350613    2.226841   -0.728953
 H   -2.020364    1.851014   -1.253890
 H   -1.223391    3.171737    1.378742
 H   -3.189299   -0.082885    1.260036
 H   -4.218322    3.283168    1.776508
 H   -1.118745    4.680406   -1.180600
 H   -1.048486    5.322125    0.486829
 H   -2.330944    5.861562   -0.626795
 H   -1.000966    0.908522    3.095394
 H    1.120718    0.907284    4.376896
 H    3.267631    0.437060    3.241149
 H    1.181412    0.011598   -0.482346
 H    2.812044   -1.697472   -0.610210
 H    4.998304   -2.178130   -1.735322
 H    6.995584   -0.826035   -1.086668
 H    4.820536    1.367487    1.623320
