51 
4b78_ligand_dft.xyz
 C    0.669741    6.112454    0.527460
 O    0.895115    5.259168   -0.572330
 C    1.028096    3.931152   -0.333898
 C    0.944386    3.336606    0.927217
 C    1.090981    1.958566    1.044728
 C    1.340354    1.145926   -0.061908
 C    1.410391    1.757563   -1.315015
 C    1.254380    3.128993   -1.454211
 C    1.500491   -0.355936    0.163390
 C    1.829878   -1.189015   -1.102010
 C    2.645578   -2.357805   -0.538171
 C    3.449277   -1.673740    0.562511
 N    2.674457   -0.625003    0.993020
 N    4.598145   -1.960762    1.023070
 O    3.521652   -2.978399   -1.433715
 C    2.873409   -3.820761   -2.355732
 C    0.214628   -0.903120    0.813351
 C    0.243059   -1.649995    1.987244
 C   -0.941844   -2.141488    2.533087
 C   -2.159674   -1.890093    1.917470
 C   -2.208159   -1.140205    0.735247
 C   -1.014209   -0.659485    0.198539
 C   -3.500024   -0.846778    0.070418
 C   -3.768315    0.401580   -0.496157
 C   -4.994918    0.619911   -1.108628
 C   -5.921974   -0.417392   -1.130508
 N   -5.690959   -1.619972   -0.599766
 C   -4.506433   -1.815146   -0.022079
 H   -0.270675    5.870758    1.039345
 H    0.604940    7.120208    0.115949
 H    1.495699    6.067969    1.248716
 H    0.756065    3.926022    1.817141
 H    0.988195    1.504886    2.027955
 H    1.581367    1.167406   -2.209180
 H    1.308335    3.602225   -2.428941
 H    0.935169   -1.483466   -1.655193
 H    2.499657   -0.629387   -1.762660
 H    1.975091   -3.104965   -0.079673
 H    3.078421    0.084228    1.585175
 H    4.956088   -2.769788    0.514731
 H    2.207188   -3.258462   -3.025291
 H    2.283354   -4.596674   -1.844811
 H    3.652583   -4.298581   -2.952565
 H    1.194037   -1.838937    2.474484
 H   -0.911658   -2.714003    3.455494
 H   -3.080557   -2.250490    2.366722
 H   -1.040091   -0.081918   -0.723079
 H   -3.028729    1.195724   -0.438614
 H   -5.234346    1.580015   -1.553957
 H   -6.895628   -0.278645   -1.595333
 H   -4.334734   -2.810880    0.383601
