43 
4b7n_ligand_aiqm1.xyz
 C   -0.495158    4.282151   -0.932143
 O    0.321513    5.156298   -1.084800
 O   -1.819736    4.484611   -0.948962
 C   -0.138227    2.858804   -0.710410
 C    1.139235    2.467659   -0.657301
 C    1.517756    1.036229   -0.413591
 C    0.294289    0.110160   -0.633624
 N    0.573181   -1.239890   -0.193457
 C    0.892464   -1.564897    1.096135
 O    0.852056   -0.729388    1.985325
 C    1.327824   -2.989470    1.297052
 C   -0.953159    0.732478    0.010174
 O   -1.201003    2.015001   -0.609855
 C   -2.267346   -0.008886   -0.252065
 O   -3.367713    0.810488    0.105993
 C   -2.498478   -1.317457    0.497624
 O   -3.732796   -1.865057    0.040342
 C   -2.542096   -1.210690    2.013651
 O   -2.797341   -2.496183    2.558250
 N    2.637822    0.665963   -1.261591
 C    3.473571   -0.400082   -0.941083
 N    3.699208   -0.916800    0.205881
 N    4.089948   -0.941894   -2.071779
 H   -1.935198    5.433055   -1.091040
 H    1.934512    3.192023   -0.760322
 H    1.839845    0.956351    0.622867
 H    0.100961    0.053998   -1.706562
 H    0.735840   -1.935169   -0.899962
 H    2.390131   -3.049051    1.057619
 H    0.785375   -3.671465    0.641956
 H    1.182010   -3.270278    2.334825
 H   -0.791469    0.879251    1.081153
 H   -2.307372   -0.230419   -1.327038
 H   -3.221891    1.680995   -0.273214
 H   -1.744025   -2.052235    0.220260
 H   -4.369064   -1.141205    0.045798
 H   -3.319266   -0.495255    2.305634
 H   -1.590022   -0.879542    2.423365
 H   -3.527562   -2.860227    2.048121
 H    2.420440    0.721576   -2.244688
 H    3.163166   -0.469209    0.940458
 H    4.840371   -1.555583   -1.791165
 H    4.407303   -0.246260   -2.728535
