93 
4b8y_ligand_xtb.xyz
 N    3.088595   -1.489284    0.981852
 C    2.808940   -2.510320    1.975528
 C    1.305846   -2.411896    2.256721
 O    0.882196   -1.393726    2.788588
 N    0.466272   -3.370281    1.854544
 C    0.679622   -4.572417    1.078379
 C   -0.212229   -4.472340   -0.167116
 O   -1.390212   -4.779921   -0.151409
 N    0.402583   -3.966027   -1.247338
 C   -0.347155   -3.589787   -2.432981
 C   -0.989121   -2.234382   -2.134947
 O   -0.493039   -1.177572   -2.507768
 C   -1.827910   -1.171983    0.685475
 C   -2.593292   -1.154721   -0.645370
 C   -4.088325   -1.305788   -0.383522
 C   -4.890887   -1.387657   -1.678960
 C   -6.390079   -1.540819   -1.415483
 C   -7.482069    0.657664   -1.564031
 C   -7.992943    1.831757   -0.766927
 N   -2.081653   -2.310177   -1.368337
 N   -6.980061   -0.362859   -0.820156
 O   -2.017229   -2.098949    1.459495
 O   -6.838687   -0.222164    0.560327
 O   -7.525782    0.577579   -2.773072
 C    1.122375    0.680592    0.108123
 C   -0.403402    0.885770    0.209089
 C   -0.766240    2.237073    0.864578
 C   -1.047364    2.205092    2.367334
 C    0.183280    1.923361    3.242101
 C    0.247983    3.513163    5.202091
 C    1.087153    4.491849    4.421049
 N   -0.900616   -0.246005    0.957944
 N   -0.045382    2.352747    4.592860
 O    1.892641    1.066737    0.971126
 O   -0.857417    1.479440    5.333934
 O   -0.146121    3.712973    6.345801
 C    2.969591   -1.758090   -0.322814
 C    2.827160   -0.538261   -1.240112
 C    3.956054    0.481889   -1.090383
 C    3.829739    1.599393   -2.123913
 C    4.942325    2.641869   -1.966024
 C    6.929192    2.030338   -3.406249
 C    6.274795    2.635130   -4.619621
 N    1.494815    0.012254   -0.993024
 N    6.247018    2.114378   -2.248424
 O    2.909457   -2.897670   -0.769253
 O    6.892990    1.548313   -1.136203
 O    8.031107    1.498029   -3.413546
 H    2.968724   -0.527251    1.291172
 H    3.353300   -2.270557    2.890011
 H    3.127624   -3.477357    1.591725
 H   -0.522003   -3.138896    2.011852
 H    1.723371   -4.679297    0.787576
 H    0.361174   -5.440556    1.664415
 H    1.374044   -3.664393   -1.187963
 H    0.335962   -3.508485   -3.277252
 H   -1.111562   -4.345498   -2.628455
 H   -2.390840   -0.266966   -1.246359
 H   -4.423583   -0.454742    0.210755
 H   -4.238846   -2.208785    0.212081
 H   -4.554693   -2.242464   -2.267394
 H   -4.735846   -0.486062   -2.274228
 H   -6.914739   -1.696561   -2.360519
 H   -6.574896   -2.387546   -0.748599
 H   -8.291650    2.618456   -1.452536
 H   -8.851794    1.529931   -0.170250
 H   -7.218891    2.194333   -0.095274
 H   -2.321263   -3.214365   -0.964383
 H   -7.571151   -0.686565    0.997151
 H   -0.810205    0.862234   -0.804994
 H    0.050101    2.934270    0.666674
 H   -1.661376    2.620553    0.371138
 H   -1.437058    3.188893    2.642852
 H   -1.825093    1.473848    2.589640
 H    1.057101    2.441053    2.850139
 H    0.408763    0.855957    3.281662
 H    2.051347    4.053052    4.175128
 H    0.584736    4.784350    3.502359
 H    1.243897    5.371224    5.039511
 H   -0.404072   -0.430190    1.836711
 H   -0.959493    1.957583    6.185512
 H    2.816439   -0.912485   -2.269002
 H    3.942598    0.918486   -0.093210
 H    4.904688   -0.039646   -1.220439
 H    3.862643    1.176396   -3.130004
 H    2.869488    2.102267   -1.998751
 H    4.965996    2.995411   -0.932150
 H    4.759081    3.492520   -2.625144
 H    6.168543    3.710585   -4.492650
 H    5.294185    2.201406   -4.794902
 H    6.912190    2.443435   -5.478139
 H    0.771451   -0.311054   -1.634386
 H    7.746893    1.248778   -1.520734
