53 
4bb2_ligand_ani-2x.xyz
 C   -3.053730    1.593448    0.372979
 C   -4.572047    1.546895    0.497721
 C   -5.187768    0.596501   -0.511791
 O   -6.287910    0.780750   -0.996581
 C   -4.375169   -0.595725   -0.841598
 C   -3.135392   -0.800420   -0.374907
 C   -2.438847   -2.122696   -0.607610
 C   -1.026455   -1.930081   -1.154433
 C   -0.189890   -1.021157   -0.249184
 C   -0.909737    0.337777   -0.065105
 C   -2.371719    0.207229    0.479554
 C   -0.047095    1.343981    0.725538
 C    1.384615    1.495250    0.177395
 C    2.087882    0.143400    0.049035
 C    1.198989   -0.759893   -0.833347
 C    2.107228   -1.944163   -1.188276
 C    3.529387   -1.327356   -1.280656
 C    3.391378    0.137027   -0.798567
 C    2.352587   -0.469286    1.432203
 C   -2.397732   -0.275403    1.942228
 C    4.645928    0.658529   -0.114313
 O    5.552674   -0.087359    0.193406
 C    4.730237    2.139978    0.188065
 H   -2.790824    2.034799   -0.598470
 H   -2.648799    2.259018    1.144133
 H   -4.867728    1.213351    1.503627
 H   -5.018615    2.533966    0.350771
 H   -4.853075   -1.333018   -1.482498
 H   -2.388636   -2.664078    0.348039
 H   -3.035164   -2.744114   -1.285669
 H   -0.539285   -2.905653   -1.280711
 H   -1.091865   -1.475859   -2.153824
 H   -0.078742   -1.520755    0.726001
 H   -1.024459    0.740522   -1.086602
 H   -0.522364    2.330626    0.721866
 H    0.007404    1.038019    1.779101
 H    1.953506    2.171000    0.826876
 H    1.342867    1.971327   -0.813415
 H    1.035004   -0.197016   -1.770108
 H    1.804472   -2.431911   -2.121907
 H    2.070985   -2.710238   -0.403023
 H    4.241813   -1.856949   -0.644163
 H    3.927523   -1.357088   -2.299473
 H    3.203375    0.790667   -1.664338
 H    2.988151    0.198879    2.023444
 H    2.867286   -1.434168    1.373414
 H    1.427593   -0.623510    1.993441
 H   -3.429949   -0.421576    2.278448
 H   -1.926952    0.452299    2.612301
 H   -1.878975   -1.232173    2.059086
 H    5.765931    2.410555    0.402746
 H    4.352679    2.739470   -0.647624
 H    4.119528    2.376281    1.066475
