51 
4bb4_ligand_xtb.xyz
 O   14.486413   14.576126    9.922070
 C   13.629978   13.944419   10.514106
 N   12.465596   14.507392   10.926508
 C   12.222674   15.923408   10.814589
 C   12.324654   16.610852   12.175528
 O   11.316902   16.083435   13.012476
 C   11.320456   16.644338   14.298519
 C   13.775854   12.493455   10.815532
 C   15.067084   11.975098   10.895243
 C   15.276225   10.641453   11.166769
 C   14.191629    9.780502   11.352458
 C   12.897287   10.288906   11.250356
 C   12.697495   11.629489   10.987137
 N   14.461644    8.449283   11.621708
 C   13.630323    7.400799   11.845275
 N   12.324204    7.536182   11.844723
 C   11.586057    6.435766   12.075671
 C   12.193823    5.173531   12.315857
 C   13.608103    5.170384   12.289469
 N   14.309499    6.239431   12.063684
 C   10.178611    6.520860   12.083356
 C    9.428622    5.402995   12.311690
 C   10.026204    4.145602   12.555024
 C   11.399281    4.044121   12.557899
 C    9.183418    2.967206   12.797347
 C    8.015260    2.748613   12.067825
 C    7.262899    1.617606   12.335166
 N    7.586388    0.723633   13.253971
 C    8.692658    0.928021   13.948718
 C    9.522335    2.020575   13.763639
 H   11.868172   14.014851   11.570732
 H   11.221402   16.086298   10.405591
 H   12.974947   16.329356   10.135251
 H   12.193872   17.697106   12.058175
 H   13.316760   16.426450   12.615110
 H   12.271898   16.456880   14.811988
 H   11.150482   17.727451   14.260442
 H   10.510941   16.169228   14.848865
 H   15.899320   12.644455   10.738728
 H   16.282973   10.253439   11.232796
 H   12.064128    9.618722   11.376444
 H   11.684893   11.991818   10.886258
 H   15.439118    8.187981   11.654568
 H   14.162815    4.254927   12.462253
 H    9.721204    7.481468   11.906751
 H    8.350721    5.475118   12.330983
 H   11.882932    3.091262   12.721669
 H    7.712649    3.436566   11.293118
 H    6.352843    1.413264   11.785949
 H    8.921785    0.175740   14.692491
 H   10.405169    2.147637   14.371527
