52 
4bbe_ligand_ani-2x.xyz
 O    2.344213   -6.848767   -5.984526
 C    1.541918   -7.744374   -5.799612
 N    1.703890   -8.740864   -4.865268
 C    2.765922   -8.940704   -3.966099
 C    3.878221   -8.097576   -3.903338
 C    0.250345   -7.869087   -6.588595
 C    3.693894  -10.292017   -2.193605
 C    4.819689   -9.463211   -2.130411
 C    5.895149   -9.771099   -1.154481
 C    7.179629   -9.236003   -1.221222
 C    8.069596   -9.650179   -0.237027
 N    7.753811  -10.508623    0.728000
 C    6.490671  -10.964270    0.696674
 N    5.558091  -10.634694   -0.191387
 N    6.181582  -11.863591    1.688078
 C    4.990960  -12.570892    1.904749
 C    5.068698  -13.802596    2.566969
 C    3.932975  -14.545286    2.832561
 C    2.666369  -14.086532    2.449377
 C    2.594674  -12.844477    1.805511
 C    3.731608  -12.092225    1.542287
 C    2.682780  -10.038644   -3.102637
 N    1.538363  -14.893889    2.687392
 C    4.886398   -8.367727   -2.991140
 C    1.322891  -15.325437    4.065771
 C    0.294943  -16.445608    4.092464
 O   -0.919869  -16.034442    3.498453
 C   -0.711091  -15.652489    2.154657
 C    0.287981  -14.508931    2.050919
 H    0.966192   -9.426433   -4.806973
 H    3.943672   -7.245825   -4.566282
 H   -0.620326   -7.822816   -5.925681
 H    0.201634   -7.047601   -7.302383
 H    0.211703   -8.820269   -7.130247
 H    3.628383  -11.140563   -1.515382
 H    7.490400   -8.552796   -2.002520
 H    9.091634   -9.273567   -0.223717
 H    6.981976  -12.130231    2.241808
 H    6.039051  -14.183696    2.877894
 H    4.024481  -15.509761    3.325371
 H    1.632506  -12.441962    1.504705
 H    3.637223  -11.127939    1.057035
 H    1.817841  -10.697978   -3.141603
 H    5.734483   -7.688056   -2.953498
 H    0.970061  -14.490467    4.696639
 H    2.262635  -15.683549    4.495782
 H    0.062181  -16.728175    5.123908
 H    0.693140  -17.329427    3.569569
 H   -1.683343  -15.344593    1.758023
 H   -0.351287  -16.511641    1.567039
 H    0.471612  -14.291202    0.992742
 H   -0.151956  -13.608120    2.516757
