21 
4bdb_ligand_aiqm1.xyz
 O  -35.149390   35.209837   10.179607
 C  -36.520352   36.237092    8.210150
 C  -36.538356   34.770547    8.506622
 C  -37.368531   33.837914    7.711357
 O  -36.796854   34.931610    5.684086
 C  -37.504870   33.956047    6.320455
 C  -38.312550   33.084923    5.599838
 C  -39.000127   32.076513    6.263040
 O  -39.782676   31.262218    5.499889
 C  -38.876475   31.924258    7.642367
 C  -38.060499   32.801306    8.341694
 N  -35.883455   34.237818    9.477600
 H  -34.714825   34.682634   10.852347
 H  -36.559082   36.797859    9.142460
 H  -35.596874   36.509196    7.698896
 H  -37.355706   36.519574    7.573458
 H  -36.946438   34.860327    4.739505
 H  -38.417730   33.170344    4.523167
 H  -40.190741   30.604900    6.067324
 H  -39.403643   31.132196    8.158522
 H  -37.951227   32.689090    9.411717
