30 
4bdc_ligand_xtb.xyz
 C  -40.203828   31.529994    4.677470
 N  -37.300486   35.289952    5.896502
 O  -42.339374   33.053724    1.934466
 C  -39.253471   32.240921    5.589650
 N  -36.711899   34.036074    8.329854
 O  -41.101243   30.828078    5.097106
 C  -38.704364   33.461954    5.284800
 N  -39.960868   31.706023    3.357647
 C  -37.840814   34.090195    6.202619
 C  -36.504945   35.827912    6.779869
 C  -36.207375   35.195053    8.005995
 C  -37.543770   33.453482    7.440676
 C  -38.135566   32.208373    7.736226
 C  -38.974548   31.626349    6.830959
 C  -40.833786   31.167695    2.331939
 C  -41.365505   32.251435    1.455006
 C  -42.616087   33.959069    0.984487
 C  -41.834095   33.761891   -0.110460
 C  -41.013352   32.649631    0.197560
 H  -38.929573   33.992186    4.371254
 H  -39.194409   32.287118    3.058655
 H  -36.076617   36.788645    6.526676
 H  -35.542006   35.653636    8.725382
 H  -37.910829   31.748525    8.685678
 H  -39.454446   30.681799    7.038775
 H  -41.648145   30.667055    2.864157
 H  -40.291266   30.440052    1.719744
 H  -43.378327   34.680777    1.200987
 H  -41.836921   34.329416   -1.018005
 H  -40.271786   32.202584   -0.432575
