34 
4bdd_ligand_ani-2x.xyz
 O  -40.172663   31.659409    3.405784
 C  -40.363760   30.723925    4.168479
 N  -41.090064   29.599866    3.840717
 C  -41.602964   29.355131    2.480013
 C  -42.298129   27.994541    2.523202
 C  -42.616904   30.440303    2.103417
 C  -40.467406   29.330091    1.447825
 N  -39.890935   30.685155    5.471440
 C  -39.158843   31.681978    6.143524
 C  -39.083678   31.563194    7.560062
 C  -38.381955   32.469891    8.305224
 C  -37.709051   33.547072    7.669934
 C  -37.781545   33.658061    6.262573
 C  -38.511421   32.713977    5.504763
 N  -37.013081   34.444220    8.422391
 C  -36.421589   35.408565    7.764416
 C  -36.493331   35.524696    6.349606
 N  -37.154731   34.676328    5.605447
 H  -40.918311   28.769905    4.393041
 H  -42.751799   27.754660    1.555230
 H  -41.583321   27.198072    2.761829
 H  -43.090146   27.993994    3.280664
 H  -42.130396   31.417325    2.063762
 H  -43.056298   30.221069    1.122933
 H  -43.421014   30.479880    2.846108
 H  -40.870019   29.097587    0.454972
 H  -39.970058   30.302073    1.410042
 H  -39.725730   28.565927    1.708648
 H  -40.260717   29.963096    6.071288
 H  -39.595613   30.740390    8.055043
 H  -38.316052   32.397102    9.385910
 H  -38.545036   32.837702    4.431802
 H  -35.857679   36.140461    8.342493
 H  -35.984463   36.345755    5.844817
