21 
4bde_ligand_aiqm1.xyz
 N  -37.858623   34.508981    5.034651
 C  -38.642247   33.495744    4.766823
 N  -38.950876   32.435393    5.558532
 C  -38.410048   32.425589    6.759694
 C  -36.949951   33.521850    8.493137
 C  -36.118733   34.558899    8.855680
 C  -35.866044   35.581267    7.905413
 C  -36.435729   35.558464    6.655080
 C  -37.540623   33.472348    7.209007
 C  -37.292900   34.499811    6.281024
 C  -35.496344   34.611169   10.226706
 N  -38.750582   31.388532    7.587821
 H  -39.106559   33.482985    3.789222
 H  -37.167537   32.746357    9.218878
 H  -35.211266   36.400655    8.181707
 H  -36.251979   36.341272    5.931690
 H  -36.262952   34.619784   11.003399
 H  -34.865158   33.738148   10.404178
 H  -34.883624   35.504886   10.340207
 H  -39.206605   30.623695    7.118224
 H  -38.109521   31.128071    8.315130
