22 
4bdf_ligand_dft.xyz
 C  -36.531351   35.009176    7.680894
 C  -35.895458   35.742793    8.819234
 C  -37.398031   33.893495    7.732002
 C  -39.273873   32.834344    4.631312
 C  -38.681827   31.326302    6.414843
 C  -40.072573   31.847928    4.063186
 C  -39.489601   30.345729    5.851940
 C  -40.184149   30.601187    4.671899
 C  -37.710798   33.611642    6.416488
 N  -37.044810   34.540725    5.682919
 C  -38.564325   32.582858    5.811048
 N  -36.314669   35.389847    6.425630
 H  -35.269065   36.551032    8.434623
 H  -36.651063   36.176258    9.483348
 H  -35.269961   35.074816    9.421088
 H  -37.773917   33.387035    8.609296
 H  -39.224278   33.817217    4.169885
 H  -40.618934   32.058988    3.148795
 H  -38.121501   31.118172    7.321539
 H  -39.569834   29.374674    6.331303
 H  -40.811384   29.832749    4.230446
 H  -36.971600   34.585032    4.679283
