20 
4bdg_ligand_aiqm1.xyz
 C  -36.438548   35.089709    7.139183
 C  -36.986423   33.971498    7.732398
 N  -35.651303   36.149381    7.612121
 N  -36.763721   35.023658    5.829300
 C  -38.600892   31.368751    7.948206
 C  -38.372851   32.021370    6.732859
 C  -37.622822   33.279479    6.671414
 N  -39.274229   30.222352    8.069187
 C  -39.755544   29.675206    6.947924
 C  -39.590025   30.239392    5.685668
 C  -38.888413   31.430789    5.576075
 N  -37.484384   33.930791    5.513655
 H  -36.916551   33.699289    8.772875
 H  -36.166684   37.018691    7.637800
 H  -35.305070   35.954897    8.539784
 H  -36.475016   35.657947    5.106695
 H  -38.222947   31.795470    8.871204
 H  -38.732901   31.910760    4.619576
 H  -40.297343   28.744999    7.070397
 H  -40.004333   29.750571    4.813677
