38 
4bdi_ligand_ani-2x.xyz
 C   -4.542697   52.373089   14.293817
 O   -4.884502   53.506109   14.598422
 C   -3.076156   52.014414   14.143921
 N   -5.456618   51.373001   14.081032
 O   -7.175204   50.491157    9.832448
 N  -11.083699   48.883378    9.801823
 C   -5.159476   50.038239   13.588693
 N   -9.087087   49.560876   10.684237
 C   -5.748666   49.823977   12.195637
 C   -7.249812   50.123507   12.198603
 C   -7.517340   51.527727   12.764558
 C   -6.876298   51.692299   14.139597
 C   -7.810825   50.066721   10.781788
 C   -9.874655   49.379777    9.538988
 C   -9.436020   49.685978    8.247959
 C  -10.315541   49.455866    7.204140
 C  -11.590814   48.936939    7.444706
 C  -11.904690   48.674886    8.772842
 C  -12.569909   48.675543    6.335435
 H   -2.498641   52.906912   14.383951
 H   -2.785645   51.206164   14.822734
 H   -2.844179   51.704056   13.119880
 H   -5.601872   49.306358   14.280393
 H   -4.081755   49.869248   13.589913
 H   -9.554156   49.271050   11.531176
 H   -5.558842   48.795628   11.867817
 H   -5.268485   50.488751   11.468762
 H   -7.767596   49.379720   12.821908
 H   -8.595974   51.716217   12.823746
 H   -7.092859   52.266845   12.074544
 H   -6.960370   52.715731   14.506831
 H   -7.360779   51.020371   14.863268
 H   -8.443378   50.089062    8.091495
 H  -10.006266   49.683949    6.184991
 H  -12.884664   48.268710    9.025989
 H  -12.802692   49.594864    5.786976
 H  -12.168302   47.956426    5.613126
 H  -13.508439   48.270751    6.725752
