37 
4bdk_ligand_xtb.xyz
 O   40.457115  -30.688621    4.715403
 C   39.780174  -31.653716    4.418303
 C   39.071613  -32.472207    5.452705
 C   39.659248  -32.528451    6.736332
 C   39.079237  -33.232994    7.750893
 C   37.879176  -33.108779    5.211468
 C   37.253033  -33.836876    6.241139
 N   36.080114  -34.461805    5.998169
 C   35.542054  -35.123781    6.985565
 C   36.147899  -35.197691    8.258235
 N   37.280637  -34.606770    8.523692
 C   37.862494  -33.908534    7.525705
 N   39.597243  -32.064757    3.143130
 C   40.272014  -31.437663    2.023686
 C   41.335889  -32.337874    1.453480
 C   41.239353  -32.855066    0.172939
 C   42.213277  -33.699475   -0.336155
 C   43.306085  -34.047751    0.448427
 O   44.319525  -34.868368    0.058089
 C   44.288554  -35.406588   -1.241054
 C   43.404110  -33.533780    1.743928
 C   42.433055  -32.691034    2.235118
 H   40.581348  -31.987191    6.886719
 H   39.519079  -33.286689    8.734312
 H   37.370815  -33.053187    4.260569
 H   34.602802  -35.621000    6.782479
 H   35.689419  -35.754440    9.064719
 H   39.134068  -32.941508    2.965473
 H   40.717082  -30.518896    2.416612
 H   39.534217  -31.181719    1.256710
 H   40.395381  -32.593383   -0.449755
 H   42.105376  -34.076548   -1.340936
 H   43.409742  -36.041884   -1.393085
 H   44.305348  -34.620395   -2.002851
 H   45.188837  -36.012443   -1.330501
 H   44.258662  -33.810782    2.340497
 H   42.519525  -32.291953    3.234842
