37 
4bdk_ligand_ani-2x.xyz
 O   40.834702  -31.068421    4.672636
 C   39.908110  -31.811959    4.383379
 C   39.145076  -32.568109    5.427029
 C   39.775619  -32.733536    6.685960
 C   39.157775  -33.425129    7.690994
 C   37.881637  -33.070794    5.216475
 C   37.217508  -33.782308    6.239407
 N   35.970522  -34.279508    6.004026
 C   35.417854  -34.935413    6.991628
 C   36.065755  -35.127067    8.242666
 N   37.261392  -34.659596    8.497673
 C   37.862549  -33.971160    7.487023
 N   39.493824  -32.008095    3.095227
 C   40.218099  -31.403939    1.985977
 C   41.319417  -32.284677    1.435299
 C   41.162403  -32.991627    0.248751
 C   42.167183  -33.826015   -0.240889
 C   43.356872  -33.955449    0.471880
 O   44.402369  -34.736699    0.088934
 C   44.264884  -35.462696   -1.112978
 C   43.527561  -33.250804    1.668074
 C   42.518606  -32.429535    2.140829
 H   40.758891  -32.294012    6.824034
 H   39.621667  -33.575856    8.660446
 H   37.328872  -32.919018    4.293887
 H   34.420507  -35.343686    6.828597
 H   35.563301  -35.681914    9.034749
 H   38.974227  -32.849483    2.894261
 H   40.637382  -30.470391    2.370616
 H   39.496677  -31.152459    1.200944
 H   40.235540  -32.893513   -0.314331
 H   42.008623  -34.360660   -1.171417
 H   43.425293  -36.168577   -1.062521
 H   44.119645  -34.794365   -1.972029
 H   45.196150  -36.016667   -1.239054
 H   44.464161  -33.366475    2.204723
 H   42.652950  -31.884986    3.072095
