25 
4bds_ligand_ani-2x.xyz
 C  132.059056  113.425476   41.659718
 C  131.436317  113.090243   42.833830
 C  131.241397  114.063575   43.844461
 C  131.682864  115.344652   43.667845
 C  133.880527  118.716254   41.179494
 C  134.563595  119.160685   40.082581
 C  134.824804  118.289348   38.996639
 C  134.383461  116.992077   39.027389
 C  133.136939  115.180749   40.231155
 N  132.772450  117.002789   42.378001
 C  133.412686  117.371233   41.260666
 C  133.652402  116.497817   40.148737
 C  132.518110  114.757429   41.433242
 C  132.346820  115.735948   42.467582
 N  133.278466  114.307572   39.173107
 H  132.223385  112.660365   40.904040
 H  131.084777  112.074440   42.993368
 H  130.740594  113.782912   44.767730
 H  131.556539  116.111251   44.425680
 H  133.671598  119.355911   42.031047
 H  134.915731  120.188402   40.040204
 H  135.375140  118.657327   38.134873
 H  134.613965  116.328905   38.196427
 H  133.397995  114.730478   38.262793
 H  132.621984  113.539561   39.141893
