48 
4bfr_ligand_ani-2x.xyz
 C    3.208216    0.934282    0.279397
 N    4.112742    0.882783   -0.765050
 C    3.601539    0.650335   -2.113786
 C    3.481398   -0.849544   -2.381921
 O    4.724478   -1.500965   -2.188368
 C    5.237581   -1.297265   -0.884401
 C    5.389937    0.195349   -0.585981
 N    1.886794    0.964482   -0.080594
 C    1.012007    1.028981    0.887834
 N    1.334344    1.074380    2.194916
 C    2.664281    1.064523    2.655203
 C    3.622798    1.007763    1.595145
 O    2.897570    1.099634    3.849907
 C   -0.453343    1.129613    0.533665
 C   -1.422425    0.392349    1.463130
 O   -1.231370    0.325287    2.672486
 N   -2.526867   -0.203475    0.910416
 C   -4.078757   -1.958165    0.614662
 C   -3.299470   -1.189083    1.701720
 C   -4.112806   -0.989552   -0.543366
 C   -3.174936    0.023605   -0.321303
 C   -3.048033    1.086534   -1.213590
 C   -3.837949    1.078882   -2.359468
 C   -4.741933    0.047497   -2.609523
 C   -4.884140   -0.993412   -1.692514
 C   -4.220553   -0.497406    2.701554
 H    4.319231    1.088727   -2.817860
 H    2.636753    1.150691   -2.217678
 H    2.708594   -1.272816   -1.718504
 H    3.190902   -1.042239   -3.419879
 H    4.578218   -1.764383   -0.134651
 H    6.208649   -1.801876   -0.851545
 H    6.102936    0.630566   -1.295804
 H    5.784477    0.355644    0.418033
 H    0.575788    0.986760    2.874835
 H    4.661654    1.058859    1.889949
 H   -0.554619    0.785118   -0.495989
 H   -0.733618    2.190102    0.566831
 H   -3.548473   -2.878202    0.338935
 H   -5.077030   -2.250589    0.957918
 H   -2.594582   -1.832300    2.237454
 H   -2.374127    1.916710   -1.031147
 H   -3.736839    1.893524   -3.071810
 H   -5.343367    0.058898   -3.514627
 H   -5.595225   -1.795855   -1.878374
 H   -4.805231   -1.243397    3.252131
 H   -3.631875    0.086466    3.412648
 H   -4.913016    0.172277    2.178968
