48 
4bfr_ligand_xtb.xyz
 C    3.125872    0.767762    0.337104
 N    3.929071    0.739748   -0.761548
 C    3.369653    0.487831   -2.073522
 C    3.587470   -0.984719   -2.443200
 O    4.955228   -1.328601   -2.392867
 C    5.499282   -1.084317   -1.115173
 C    5.330610    0.389666   -0.720890
 N    1.786764    0.882180    0.053071
 C    0.954638    0.984530    1.035452
 N    1.318403    0.978156    2.323945
 C    2.663405    0.837990    2.730685
 C    3.574149    0.752080    1.637472
 O    2.927738    0.804037    3.916822
 C   -0.496506    1.168837    0.673671
 C   -1.450195    0.386477    1.562724
 O   -1.215855    0.170341    2.739959
 N   -2.577569   -0.094105    0.989425
 C   -4.095865   -1.881911    0.645498
 C   -3.392109   -1.065158    1.738856
 C   -4.043400   -0.958300   -0.534238
 C   -3.138471    0.079497   -0.280462
 C   -2.987720    1.109143   -1.193887
 C   -3.701540    1.044405   -2.384225
 C   -4.558142   -0.006693   -2.654769
 C   -4.744664   -1.014632   -1.716762
 C   -4.380877   -0.329246    2.637429
 H    3.887447    1.126053   -2.796862
 H    2.308424    0.726996   -2.054789
 H    3.015291   -1.618258   -1.747664
 H    3.262918   -1.184199   -3.465538
 H    5.001771   -1.718598   -0.364967
 H    6.554332   -1.355124   -1.177013
 H    5.854057    1.015942   -1.452012
 H    5.753639    0.571692    0.263489
 H    0.597525    0.939137    3.042517
 H    4.613115    0.658574    1.900125
 H   -0.606474    0.883881   -0.371324
 H   -0.734220    2.232230    0.780325
 H   -3.560694   -2.809941    0.429417
 H   -5.116889   -2.136456    0.926153
 H   -2.720486   -1.666926    2.356559
 H   -2.365538    1.966111   -0.999123
 H   -3.587785    1.840815   -3.103998
 H   -5.100204   -0.033657   -3.587362
 H   -5.435150   -1.822710   -1.905230
 H   -4.981446   -1.043344    3.194334
 H   -3.840472    0.294861    3.344240
 H   -5.038231    0.298023    2.038153
