30 
4bg1_ligand_aiqm1.xyz
 C   21.966775   33.431336   87.300018
 C   22.923328   33.322269   86.107032
 C   24.091812   32.427718   86.583495
 C   23.867734   32.258535   88.074851
 C   21.954335   32.553289   89.595980
 C   21.696801   31.035859   87.691683
 C   22.308870   29.756901   88.218721
 C   21.456969   28.536785   87.892412
 C   22.114258   27.266613   88.424611
 N   22.364560   32.290974   88.200380
 O   23.154915   27.267668   89.016573
 O   21.446959   26.128451   88.188533
 H   20.917700   33.311284   87.051168
 H   22.107303   34.346504   87.865201
 H   23.268251   34.306356   85.818165
 H   22.425596   32.887810   85.246864
 H   25.055048   32.876746   86.386256
 H   24.078070   31.462419   86.084168
 H   24.242492   33.109722   88.638204
 H   24.247107   31.344760   88.509040
 H   20.883994   32.731249   89.626661
 H   22.194866   31.698706   90.215619
 H   22.485360   33.425907   89.962976
 H   20.653338   31.122034   87.989525
 H   21.741403   31.073407   86.608011
 H   22.449016   29.805940   89.299126
 H   23.295619   29.607079   87.784871
 H   21.325006   28.431397   86.813209
 H   20.461454   28.620224   88.335476
 H   20.633759   26.298057   87.703571
