30 
4bg1_ligand_dft.xyz
 C    2.840701    0.249085   -0.869902
 C    3.090693   -1.238124   -0.578075
 C    2.350836   -1.527966    0.753108
 C    1.887175   -0.160334    1.241028
 C    1.596643    2.093954    0.237232
 C    0.381029    0.181775   -0.750844
 C   -0.881878    0.177358    0.096365
 C   -2.114394   -0.103788   -0.763414
 C   -3.359885   -0.137825    0.122609
 N    1.640671    0.626222   -0.026104
 O   -3.313056    0.037587    1.309787
 O   -4.522174   -0.375558   -0.498873
 H    2.627361    0.486843   -1.913506
 H    3.669825    0.874192   -0.531403
 H    4.163392   -1.420249   -0.495674
 H    2.720026   -1.872671   -1.385586
 H    2.995896   -1.998342    1.496613
 H    1.499609   -2.196046    0.597772
 H    2.684254    0.365729    1.772693
 H    0.993518   -0.155515    1.863588
 H    1.492313    2.622857   -0.711326
 H    0.753278    2.323138    0.887737
 H    2.524100    2.394160    0.726188
 H    0.285990    0.860641   -1.603548
 H    0.579827   -0.817358   -1.145373
 H   -1.033882    1.131798    0.607929
 H   -0.832404   -0.590647    0.872557
 H   -2.021583   -1.064651   -1.286843
 H   -2.244426    0.667399   -1.533941
 H   -4.405472   -0.495874   -1.451093
