88 
4bgy_ligand_ani-2x.xyz
 C   -3.982203   -0.219135    2.524204
 C   -3.060681   -0.564776    1.333727
 C   -3.100709   -2.039277    0.946548
 C   -4.386410   -2.419033    0.225642
 C   -4.678008   -1.407779   -0.899574
 C   -4.693250    0.006478   -0.305589
 C   -5.068375    1.095143   -1.317664
 C   -4.481386    2.468011   -1.001667
 C   -3.037360    2.649284   -1.450544
 C   -7.136104   -1.760509   -1.040644
 C   -8.286094   -1.898633   -2.017389
 N   -5.893030   -1.756197   -1.620361
 O   -4.017819   -1.187178    3.452021
 O   -4.596354    0.810400    2.628475
 O   -4.190232   -3.712364   -0.305203
 O   -3.403722    0.262850    0.258620
 O   -4.715800    0.716020   -2.641642
 O   -5.279248    3.396367   -1.718787
 O   -2.673620    3.960347   -1.060777
 O   -7.295687   -1.696081    0.167838
 C    1.600245   -0.226550    0.203030
 C    0.453320   -0.702098    1.100496
 C   -0.799384    0.116188    0.841305
 C   -0.482145    1.607539    0.971483
 C    0.663561    1.963624    0.034225
 C    1.084568    3.415997    0.168757
 O    0.154468   -2.057691    0.823912
 O   -1.793869   -0.185109    1.806809
 O   -0.097391    1.931181    2.287565
 O    1.810215    1.166586    0.334378
 O   -0.033687    4.274828   -0.056937
 C    6.779464   -1.439006    0.150440
 C    6.276509   -0.017339   -0.197437
 C    4.894634    0.207955    0.399822
 C    3.899078   -0.774969   -0.233365
 C    4.551737   -2.158917   -0.399082
 C    4.831376   -2.505314   -1.871688
 C    8.418238    1.185892   -0.280018
 C    9.158568    2.444717    0.107892
 N    7.183743    1.019363    0.261886
 O    7.566954   -1.972240   -0.879213
 O    4.548485    1.555248    0.166343
 O    2.754163   -0.905948    0.605417
 O    5.713172   -2.302340    0.415564
 O    5.496129   -3.732499   -2.003215
 O    8.926323    0.363384   -1.042910
 H   -2.255741   -2.248864    0.281143
 H   -2.970400   -2.661611    1.835433
 H   -5.234087   -2.409663    0.927952
 H   -3.853299   -1.453406   -1.613721
 H   -5.448142    0.048977    0.490471
 H   -6.160685    1.218816   -1.263765
 H   -4.546221    2.650954    0.082037
 H   -2.982616    2.538887   -2.544176
 H   -2.406843    1.879590   -0.999409
 H   -9.219159   -1.695384   -1.490885
 H   -8.187243   -1.210139   -2.864471
 H   -8.320350   -2.918966   -2.415179
 H   -5.858354   -1.578561   -2.614292
 H   -4.586904   -0.852695    4.164802
 H   -4.977573   -3.930699   -0.822359
 H   -5.088703    1.409948   -3.204385
 H   -4.806136    4.240146   -1.663264
 H   -1.707086    4.024716   -0.987169
 H    1.377133   -0.461845   -0.854843
 H    0.758618   -0.559360    2.145109
 H   -1.150703   -0.111558   -0.174545
 H   -1.380881    2.184799    0.696676
 H    0.356090    1.764755   -1.006118
 H    1.846893    3.652447   -0.582094
 H    1.517237    3.579339    1.161149
 H    0.953217   -2.563276    1.022024
 H   -0.779890    1.554764    2.863029
 H   -0.387795    4.516536    0.809739
 H    7.359281   -1.411108    1.086590
 H    6.200509    0.046492   -1.294221
 H    4.916970   -0.004513    1.481215
 H    3.594651   -0.388175   -1.217796
 H    3.871121   -2.913173    0.002504
 H    3.869135   -2.594307   -2.391247
 H    5.393811   -1.693338   -2.361403
 H   10.131484    2.162012    0.519398
 H    9.346895    3.032279   -0.795778
 H    8.624527    3.063079    0.834636
 H    6.727312    1.832549    0.658515
 H    8.214820   -1.272439   -1.121987
 H    3.599392    1.644933    0.363284
 H    6.381522   -3.590010   -1.632525
