88 
4bgy_ligand_xtb.xyz
 C   -4.031005   -0.301208    2.465298
 C   -3.057651   -0.586610    1.291331
 C   -3.046372   -2.055696    0.863083
 C   -4.351593   -2.434087    0.169434
 C   -4.625116   -1.426308   -0.964043
 C   -4.619023   -0.000084   -0.380730
 C   -4.936419    1.043722   -1.467583
 C   -4.497379    2.462926   -1.073432
 C   -3.049031    2.776600   -1.469739
 C   -7.086062   -1.691781   -1.054469
 C   -8.235173   -1.819034   -2.031598
 N   -5.867105   -1.718473   -1.654185
 O   -4.211557   -1.350487    3.252046
 O   -4.523042    0.773554    2.661028
 O   -4.210192   -3.741281   -0.334550
 O   -3.360829    0.269881    0.210128
 O   -4.388338    0.637554   -2.703240
 O   -5.378977    3.355713   -1.722987
 O   -2.684907    3.958855   -0.792488
 O   -7.237204   -1.609867    0.146096
 C    1.618374   -0.154373    0.318242
 C    0.465575   -0.678893    1.198716
 C   -0.797968    0.132180    0.902327
 C   -0.510261    1.637203    1.041689
 C    0.692570    2.014954    0.166906
 C    1.101681    3.484704    0.367269
 O    0.218556   -2.024219    0.903239
 O   -1.821803   -0.189926    1.834041
 O   -0.240383    1.975056    2.377802
 O    1.822590    1.231910    0.492676
 O    0.029848    4.365193    0.160596
 C    6.786980   -1.367045    0.058858
 C    6.241882    0.022498   -0.361413
 C    4.901617    0.271763    0.334281
 C    3.888387   -0.777342   -0.162831
 C    4.552305   -2.175389   -0.184543
 C    4.700855   -2.720909   -1.623838
 C    8.422406    1.156900   -0.478182
 C    9.135178    2.441019   -0.130771
 N    7.157766    1.088106   -0.014017
 O    7.455603   -1.991996   -0.993567
 O    4.513527    1.591151    0.055964
 O    2.751612   -0.850157    0.694581
 O    5.770536   -2.190998    0.535404
 O    5.423397   -3.910336   -1.654984
 O    8.947406    0.249970   -1.101624
 H   -2.211433   -2.218289    0.179954
 H   -2.889287   -2.684780    1.737193
 H   -5.181871   -2.388825    0.887209
 H   -3.818121   -1.500076   -1.698044
 H   -5.403174    0.073329    0.384012
 H   -6.034143    1.081676   -1.556843
 H   -4.582146    2.566275    0.016404
 H   -2.990551    2.928543   -2.557723
 H   -2.413317    1.929911   -1.196236
 H   -9.157975   -1.975014   -1.480986
 H   -8.321462   -0.901935   -2.610962
 H   -8.070710   -2.649594   -2.713420
 H   -5.834340   -1.613905   -2.655974
 H   -4.801416   -1.126827    3.992904
 H   -5.056812   -4.018676   -0.700963
 H   -4.567744    1.346287   -3.332375
 H   -5.085228    4.248527   -1.504775
 H   -1.737752    4.129744   -0.896621
 H    1.371136   -0.346221   -0.749220
 H    0.749115   -0.541102    2.250673
 H   -1.130157   -0.093795   -0.114459
 H   -1.404446    2.177977    0.698703
 H    0.414702    1.839802   -0.886355
 H    1.871155    3.743672   -0.363553
 H    1.516330    3.581335    1.374543
 H    1.018389   -2.527269    1.099795
 H   -0.879281    1.492321    2.919572
 H   -0.534530    4.349970    0.943678
 H    7.463554   -1.239518    0.921168
 H    6.083203    0.020603   -1.450594
 H    5.024473    0.126845    1.419827
 H    3.560947   -0.496961   -1.173841
 H    3.924162   -2.864113    0.389232
 H    3.705739   -2.941830   -2.018795
 H    5.175113   -1.960947   -2.261488
 H   10.172249    2.372294   -0.445305
 H    8.660666    3.275172   -0.643098
 H    9.090164    2.618417    0.940752
 H    6.715615    1.912162    0.365775
 H    8.176913   -1.383535   -1.263809
 H    3.581781    1.690110    0.316735
 H    6.313423   -3.707319   -1.326134
