88 
4bh3_ligand_ani-2x.xyz
 C   -1.070737   -0.880667    1.175768
 C   -1.990949   -0.049145    0.248816
 C   -3.458003   -0.490986    0.303497
 C   -4.152235   -0.028799    1.579852
 C   -3.970394    1.483307    1.727689
 C   -2.473257    1.809596    1.767121
 C   -2.232798    3.324759    1.824347
 C   -0.753545    3.746022    1.707082
 C    0.186297    3.206779    2.795803
 C   -4.501161    1.547475    4.147142
 C   -5.522224    2.042480    5.151119
 N   -4.679068    2.020218    2.874587
 O   -0.126412   -0.399677    1.775820
 O   -1.342768   -2.171607    1.204933
 O   -5.548170   -0.266937    1.519646
 O   -1.840904    1.304959    0.578553
 O   -2.938041    3.995654    0.796589
 O   -0.277264    3.501491    0.399703
 O    0.810445    1.980356    2.491301
 O   -3.568354    0.821104    4.451562
 C    1.701194   -2.269210   -2.780517
 C    1.384161   -3.300136   -3.855305
 C    0.267362   -2.804353   -4.758390
 C   -0.956873   -2.446630   -3.919736
 C   -0.564470   -1.484068   -2.798184
 C   -1.711444   -1.267861   -1.823221
 O    2.501115   -3.563408   -4.683336
 O   -0.126854   -3.822725   -5.658793
 O   -1.489203   -3.616094   -3.339554
 O    0.531384   -1.995914   -2.046094
 O   -1.417664   -0.120649   -1.028810
 C    2.982887    0.170200    0.938755
 C    4.076315    0.215515   -0.131630
 C    3.631966   -0.634226   -1.342600
 C    3.175335   -2.028466   -0.877734
 C    2.211786   -1.937820    0.310619
 C    1.866683   -3.291592    0.916415
 C    5.202136    2.152178   -1.264878
 C    5.391844    3.650565   -1.191672
 N    4.257482    1.630762   -0.443336
 O    3.334884    0.984981    2.004869
 O    4.639514   -0.862252   -2.278353
 O    2.659884   -2.833109   -1.933231
 O    2.798015   -1.160082    1.352120
 O    1.032478   -3.118280    2.052628
 O    5.880558    1.480817   -2.042514
 H   -3.534577   -1.577621    0.205459
 H   -3.978714   -0.032192   -0.544648
 H   -3.713743   -0.527250    2.455336
 H   -4.392761    1.965904    0.842457
 H   -2.038179    1.332252    2.657930
 H   -2.624676    3.691370    2.780086
 H   -0.769258    4.838100    1.811387
 H    0.987888    3.939330    2.937654
 H   -0.363448    3.138452    3.747977
 H   -5.420873    1.462322    6.068902
 H   -6.545974    1.948270    4.771645
 H   -5.343993    3.099073    5.381127
 H   -5.572388    2.443175    2.672989
 H   -0.567349   -2.621268    1.640706
 H   -5.702318   -1.195551    1.732318
 H   -2.342233    3.973412    0.028290
 H   -0.450852    2.557485    0.230642
 H    0.175969    1.303968    2.191114
 H    2.088851   -1.348763   -3.251843
 H    1.035817   -4.211360   -3.349999
 H    0.612237   -1.914307   -5.310539
 H   -1.704383   -1.954991   -4.567293
 H   -0.285292   -0.510368   -3.234064
 H   -2.648629   -1.102073   -2.375031
 H   -1.819143   -2.170807   -1.210507
 H    3.208793   -3.872420   -4.102308
 H    0.689707   -4.221272   -5.995486
 H   -1.495999   -4.277611   -4.048417
 H    2.036969    0.535031    0.491902
 H    4.995846   -0.215813    0.288367
 H    2.782206   -0.088371   -1.799759
 H    4.080189   -2.547275   -0.540201
 H    1.284398   -1.451447   -0.002594
 H    1.316975   -3.897731    0.191598
 H    2.781032   -3.833143    1.197791
 H    5.234387    4.067711   -2.190243
 H    6.430560    3.855115   -0.915983
 H    4.726245    4.151649   -0.483125
 H    3.910982    2.247069    0.282222
 H    2.505896    1.246447    2.451754
 H    5.185817   -0.047855   -2.348427
 H    1.432484   -2.400869    2.573067
