88 
4bh3_ligand_xtb.xyz
 C   -1.152903   -0.950987    1.020332
 C   -1.899175    0.001437    0.055872
 C   -3.409742   -0.252558    0.010406
 C   -4.081420    0.230476    1.298822
 C   -3.707683    1.700751    1.549531
 C   -2.175366    1.804005    1.618698
 C   -1.725805    3.272872    1.772871
 C   -0.210095    3.410888    2.056657
 C    0.214754    2.760791    3.407517
 C   -4.050430    1.775643    4.004492
 C   -5.001941    2.310488    5.051318
 N   -4.341520    2.201689    2.750072
 O   -0.348312   -0.529956    1.822096
 O   -1.389367   -2.219824    0.823914
 O   -5.486241    0.163891    1.205410
 O   -1.601287    1.328597    0.403550
 O   -2.079144    4.015819    0.639094
 O    0.558457    2.952172    0.972943
 O    0.876533    1.530626    3.277724
 O   -3.101838    1.065021    4.266270
 C    1.796693   -2.401488   -2.713205
 C    1.515743   -3.560017   -3.677449
 C    0.468306   -3.097998   -4.697053
 C   -0.788103   -2.587651   -3.972845
 C   -0.398292   -1.554867   -2.900801
 C   -1.597611   -1.234855   -2.008585
 O    2.668765   -3.952026   -4.374737
 O    0.074253   -4.161669   -5.529499
 O   -1.473192   -3.653669   -3.373028
 O    0.612022   -2.037929   -2.045261
 O   -1.264020   -0.119920   -1.199233
 C    2.843811    0.199641    1.068406
 C    3.859133    0.340286   -0.086481
 C    3.417944   -0.532849   -1.275344
 C    3.154157   -1.963593   -0.774872
 C    2.149391   -1.917096    0.386797
 C    1.822662   -3.297759    0.951607
 C    3.927046    2.462321   -1.507491
 C    3.784834    3.951642   -1.288630
 N    3.896663    1.767906   -0.358272
 O    3.298323    0.935943    2.134900
 O    4.375835   -0.614264   -2.284912
 O    2.737679   -2.856566   -1.796969
 O    2.668897   -1.145616    1.448888
 O    0.807102   -3.209532    1.931696
 O    4.059462    1.974915   -2.619284
 H   -3.597332   -1.316778   -0.139189
 H   -3.823861    0.308586   -0.830777
 H   -3.726928   -0.365896    2.154681
 H   -4.061076    2.307978    0.710746
 H   -1.833020    1.214443    2.474647
 H   -2.278919    3.710092    2.609900
 H   -0.004221    4.486619    2.117489
 H    0.938524    3.411963    3.902511
 H   -0.666238    2.661831    4.054379
 H   -5.991496    1.885299    4.897893
 H   -5.070895    3.393218    4.982095
 H   -4.643581    2.030988    6.037491
 H   -5.222069    2.669222    2.608013
 H   -0.681155   -2.768888    1.296462
 H   -5.749536   -0.750829    1.056846
 H   -1.532646    3.693301   -0.091515
 H    0.214211    2.086048    0.706393
 H    0.299930    0.863829    2.871785
 H    2.184360   -1.543606   -3.296371
 H    1.111931   -4.399369   -3.089417
 H    0.906153   -2.285604   -5.297324
 H   -1.440410   -2.096453   -4.713925
 H   -0.048450   -0.637675   -3.400564
 H   -2.465658   -1.003376   -2.636135
 H   -1.797869   -2.126476   -1.411003
 H    3.413213   -3.897129   -3.762768
 H    0.881898   -4.594403   -5.833654
 H   -1.428280   -4.389907   -4.001489
 H    1.870291    0.580028    0.694386
 H    4.844636    0.005663    0.264514
 H    2.471988   -0.106576   -1.652437
 H    4.100417   -2.389191   -0.423884
 H    1.226779   -1.452277    0.010750
 H    1.453971   -3.944304    0.155289
 H    2.727650   -3.729351    1.392734
 H    3.790786    4.458235   -2.249276
 H    4.609199    4.320378   -0.682987
 H    2.850050    4.156972   -0.771518
 H    3.792918    2.294868    0.500497
 H    2.548203    1.132993    2.733381
 H    4.464820    0.296897   -2.650868
 H    1.056138   -2.476195    2.516984
