29 
4bhf_ligand_aiqm1.xyz
 N   -1.330766   -0.224376   -0.051985
 C   -1.146117   -1.655225   -0.449769
 O    4.106755   -1.060095    0.286010
 C    2.807253   -0.965602    0.010102
 O    2.023010   -1.878167    0.118216
 C    2.427874    0.420688   -0.449588
 C    0.030313    0.388657    0.345867
 C   -1.968507    0.528419   -1.168753
 C   -2.250747   -0.203432    1.122977
 C    0.958071    0.510455   -0.858352
 C   -0.132606    1.721505    1.047835
 H   -0.671057   -2.195938    0.363038
 H   -0.518463   -1.729128   -1.327927
 H   -2.120953   -2.079590   -0.670012
 H    4.282787   -1.970716    0.559181
 H    3.069914    0.680036   -1.286999
 H    2.669971    1.121484    0.351915
 H    0.430462   -0.346174    1.040523
 H   -2.954782    0.110882   -1.347513
 H   -1.368110    0.430687   -2.064999
 H   -2.057972    1.573341   -0.895803
 H   -3.128737   -0.797020    0.888935
 H   -1.732171   -0.624390    1.978318
 H   -2.546404    0.817939    1.330263
 H    0.783853    1.462876   -1.359048
 H    0.760165   -0.276709   -1.582886
 H   -0.654546    2.463015    0.441634
 H    0.857979    2.124944    1.237598
 H   -0.626569    1.651634    2.013325
