29 
4bhf_ligand_xtb.xyz
 N   -1.315991   -0.206506   -0.056873
 C   -1.076539   -1.573683   -0.577357
 O    4.019218   -1.225860    0.324435
 C    2.726801   -1.027268    0.155616
 O    1.879448   -1.846092    0.420056
 C    2.438188    0.354412   -0.395052
 C    0.002807    0.452180    0.305998
 C   -2.063534    0.565300   -1.064994
 C   -2.145873   -0.336703    1.157309
 C    0.991128    0.506038   -0.872517
 C   -0.165706    1.851528    0.886677
 H   -0.263938   -2.050735   -0.029615
 H   -0.816324   -1.549344   -1.632138
 H   -1.979288   -2.171160   -0.472523
 H    4.215133   -2.107312    0.683494
 H    3.127851    0.532930   -1.220564
 H    2.684632    1.077992    0.384419
 H    0.427889   -0.197659    1.075168
 H   -2.936958   -0.000857   -1.384229
 H   -1.437499    0.760189   -1.932564
 H   -2.402234    1.511825   -0.650782
 H   -3.080971   -0.837472    0.912767
 H   -1.619179   -0.925955    1.905665
 H   -2.385523    0.638438    1.572086
 H    0.895244    1.458469   -1.395528
 H    0.809136   -0.294361   -1.585896
 H   -0.640540    2.532901    0.186261
 H    0.823885    2.248478    1.097851
 H   -0.711361    1.860284    1.824930
