20 
4bi0_ligand_xtb.xyz
 C    1.532041   45.255812   16.562226
 N    1.434906   44.764440   15.333691
 C    0.657997   43.712624   15.134489
 C   -0.028544   43.155062   16.200759
 N    0.933946   44.818317   17.653424
 C    0.149019   43.763478   17.477482
 C   -0.653106   43.014505   18.399895
 C   -0.893153   43.116310   19.765604
 C   -1.274710   41.994099   17.641229
 C   -2.130688   41.078884   18.236327
 C   -2.354312   41.199386   19.593961
 C   -1.745540   42.202436   20.349110
 N   -0.884885   42.097212   16.326692
 H    2.178291   46.115371   16.678592
 H   -1.188286   41.494946   15.580320
 H    0.598319   43.333895   14.121345
 H   -0.416664   43.895730   20.338535
 H   -1.949604   42.258470   21.407689
 H   -2.604672   40.300477   17.657132
 H   -3.016354   40.500547   20.083498
