20 
4bi0_ligand_dft.xyz
 C    1.542172   45.268273   16.561288
 N    1.448865   44.778009   15.316927
 C    0.664930   43.718663   15.124652
 C   -0.020123   43.163228   16.196412
 N    0.936081   44.822219   17.659000
 C    0.151236   43.761430   17.463841
 C   -0.656578   43.008302   18.395807
 C   -0.894780   43.114419   19.767414
 C   -1.277880   41.989599   17.643269
 C   -2.139946   41.067560   18.239126
 C   -2.362336   41.191897   19.602106
 C   -1.749404   42.202044   20.363526
 N   -0.882463   42.095709   16.319715
 H    2.189641   46.132404   16.683121
 H   -1.188421   41.496327   15.571981
 H    0.594208   43.326134   14.111825
 H   -0.413440   43.900392   20.340218
 H   -1.950926   42.263277   21.428064
 H   -2.618389   40.283369   17.660520
 H   -3.028447   40.488742   20.093188
