20 
4bi0_ligand_ani-2x.xyz
 C    1.535390   45.264038   16.578507
 N    1.451128   44.781360   15.321876
 C    0.673244   43.727714   15.119938
 C   -0.020832   43.160633   16.189980
 N    0.931343   44.816873   17.665082
 C    0.146195   43.750328   17.451860
 C   -0.657628   43.002987   18.385004
 C   -0.888291   43.119633   19.755442
 C   -1.281255   41.983016   17.637209
 C   -2.143613   41.064009   18.243551
 C   -2.361263   41.194567   19.605675
 C   -1.744666   42.207961   20.360515
 N   -0.886338   42.089722   16.314965
 H    2.181874   46.128356   16.707696
 H   -1.195383   41.490251   15.568113
 H    0.603944   43.335799   14.105154
 H   -0.407515   43.906328   20.333833
 H   -1.941128   42.276837   21.426645
 H   -2.624144   40.277431   17.666968
 H   -3.027060   40.494158   20.103989
