20 
4bi0_ligand_aiqm1.xyz
 C    1.545101   45.270343   16.551387
 N    1.449398   44.776133   15.308265
 C    0.661247   43.713645   15.125385
 C   -0.018233   43.167698   16.203268
 N    0.941617   44.828705   17.654991
 C    0.154621   43.767066   17.468101
 C   -0.652950   43.013381   18.398022
 C   -0.897158   43.113276   19.773605
 C   -1.274934   41.994411   17.647306
 C   -2.137642   41.069607   18.236788
 C   -2.364965   41.188158   19.601729
 C   -1.753586   42.196812   20.364202
 N   -0.880893   42.098290   16.323743
 H    2.190240   46.130137   16.671136
 H   -1.184296   41.503757   15.575123
 H    0.583954   43.314191   14.119726
 H   -0.421949   43.893464   20.353257
 H   -1.954558   42.257402   21.424130
 H   -2.611493   40.290546   17.655248
 H   -3.029522   40.484980   20.086590
