21 
4bis_ligand_ani-2x.xyz
 O   24.200199  -22.790893   -2.932482
 O   23.153983  -22.397187   -4.850714
 O   28.408590  -20.077907   -8.000544
 C   26.624241  -23.068657   -4.552947
 C   27.824255  -22.905607   -5.277031
 C   26.284649  -19.100530   -7.594105
 C   25.069600  -19.122902   -6.876755
 C   25.569147  -22.229860   -4.804969
 N   27.996615  -21.963942   -6.174241
 C   27.228211  -20.065712   -7.352931
 C   24.791027  -20.104934   -5.957381
 C   24.268894  -22.490611   -4.092820
 C   25.739858  -21.135449   -5.709114
 C   26.980539  -21.086767   -6.382360
 H   23.399329  -22.283550   -5.781615
 H   28.896464  -20.839610   -7.632619
 H   26.522562  -23.860471   -3.817646
 H   28.658541  -23.582035   -5.104089
 H   26.487720  -18.325056   -8.325989
 H   24.335124  -18.346688   -7.074276
 H   23.856652  -20.088033   -5.404473
