21 
4bis_ligand_dft.xyz
 O   -3.606784    0.131206   -0.610352
 O   -2.754672   -1.405089    0.742000
 O    3.469295    0.696871    0.097859
 C   -1.308061    1.754098   -0.002521
 C   -0.083901    2.452341    0.063438
 C    2.524446   -1.469325   -0.087214
 C    1.366803   -2.263233   -0.203105
 C   -1.307117    0.380620   -0.036359
 N    1.080816    1.848411    0.087324
 C    2.398793   -0.103442    0.010664
 C    0.101418   -1.723874   -0.195845
 C   -2.652118   -0.298187   -0.020856
 C   -0.061837   -0.318299   -0.067469
 C    1.099559    0.493979    0.012936
 H   -1.924682   -1.566798    1.213878
 H    3.116744    1.606371    0.145848
 H   -2.249050    2.292918   -0.009550
 H   -0.076553    3.538431    0.109291
 H    3.512485   -1.915544   -0.093157
 H    1.482764   -3.337260   -0.312521
 H   -0.758039   -2.368970   -0.343125
