21 
4bis_ligand_aiqm1.xyz
 O   24.251049  -22.804752   -2.906657
 O   23.133980  -22.424940   -4.780655
 O   28.441614  -20.047264   -7.964750
 C   26.609089  -23.071768   -4.571665
 C   27.814700  -22.911682   -5.290983
 C   26.299534  -19.093768   -7.600271
 C   25.070949  -19.135054   -6.905711
 C   25.559117  -22.220956   -4.812185
 N   27.993376  -21.968221   -6.186929
 C   27.245851  -20.055903   -7.346134
 C   24.778212  -20.127121   -5.997744
 C   24.278465  -22.490152   -4.062651
 C   25.733050  -21.147466   -5.733201
 C   26.981166  -21.088680   -6.397040
 H   23.330999  -22.248594   -5.707404
 H   28.930473  -20.804814   -7.608624
 H   26.506435  -23.865103   -3.843174
 H   28.641559  -23.590567   -5.117898
 H   26.512164  -18.310486   -8.313631
 H   24.342315  -18.356218   -7.093074
 H   23.842105  -20.102890   -5.458720
