43 
4bks_ligand_xtb.xyz
 C   -0.832226    2.100358   -0.410863
 C   -1.550699    1.077606    0.430852
 O   -1.621454    1.162363    1.650659
 N   -2.109343    0.052463   -0.236957
 C   -2.063365   -0.158233   -1.666520
 C   -2.770238   -1.501357   -1.898749
 O   -3.469863   -1.440508   -3.115998
 C   -3.672172   -1.648599   -0.662375
 C   -2.842147   -1.016177    0.443676
 C   -1.790742   -1.996694    1.002206
 O   -1.530008   -3.053571    0.463137
 N   -1.186826   -1.528349    2.109060
 C    0.134402   -1.998391    2.495296
 C    1.138172   -1.082953    1.843873
 C    1.672308   -0.000344    2.529490
 C    2.475530    0.915672    1.880067
 C    1.423159   -1.232364    0.489759
 C    2.220951   -0.319520   -0.167780
 C    2.753354    0.772429    0.520785
 C    3.572828    1.748278   -0.165625
 O    4.113166    2.794077    0.516957
 C    4.792162    3.492498   -0.395630
 N    4.739155    3.001069   -1.589021
 C    3.967231    1.886089   -1.473323
 H    0.032453    1.642147   -0.887834
 H   -0.494778    2.906182    0.234728
 H   -1.487004    2.499082   -1.181742
 H   -1.035179   -0.170935   -2.035224
 H   -2.620525    0.619443   -2.200825
 H   -2.037192   -2.318438   -1.911456
 H   -3.893753   -2.290494   -3.274109
 H   -4.597559   -1.093823   -0.821863
 H   -3.896699   -2.690052   -0.440896
 H   -3.435329   -0.593522    1.259611
 H   -1.393471   -0.563076    2.364615
 H    0.236718   -3.024371    2.135377
 H    0.216518   -1.974410    3.583669
 H    1.449942    0.131294    3.578029
 H    2.884274    1.757856    2.417131
 H    1.002677   -2.069277   -0.048278
 H    2.434814   -0.445362   -1.218107
 H    5.314931    4.377700   -0.094278
 H    3.755630    1.274014   -2.324623
