36 
4bkt_ligand_ani-2x.xyz
 C   -4.144308    0.421128   -1.971967
 C   -3.473759   -0.193801   -0.786229
 N   -3.954325   -1.279528   -0.233643
 O   -3.109999   -1.573869    0.820982
 C   -2.128375   -0.661764    0.876850
 C   -1.135988   -0.858300    1.986111
 C    0.159122   -0.081792    1.786126
 N    0.947370   -0.463501    0.755438
 C    2.207005    0.247138    0.484256
 C    1.937284    1.591500   -0.235158
 N    1.577409    2.616305    0.577998
 C    1.202175    3.898875    0.023493
 O    2.057468    1.702613   -1.447737
 C    2.968948   -0.726485   -0.408739
 C    1.864129   -1.484492   -1.151184
 C    0.768870   -1.634928   -0.098171
 O    0.468439    0.852857    2.522495
 C   -2.301186    0.252557   -0.111094
 O    2.233718   -2.769644   -1.602391
 H   -5.031394   -0.154095   -2.246505
 H   -3.461795    0.450741   -2.827223
 H   -4.441934    1.451074   -1.752333
 H   -1.564888   -0.508996    2.929102
 H   -0.942825   -1.931708    2.088685
 H    2.710965    0.443239    1.437978
 H    1.281668    2.372305    1.517337
 H    0.124989    3.964298   -0.179115
 H    1.484770    4.695716    0.717068
 H    1.734213    4.038434   -0.919629
 H    3.539745   -1.435357    0.202285
 H    3.651246   -0.210620   -1.087640
 H    1.492473   -0.861198   -1.975709
 H   -0.229534   -1.656500   -0.545412
 H    0.923421   -2.572912    0.451287
 H   -1.688001    1.111574   -0.344284
 H    2.861491   -2.660900   -2.327009
