36 
4bkt_ligand_xtb.xyz
 C   -4.548993    1.152193   -1.376038
 C   -3.532580    0.283106   -0.735865
 N   -3.035483   -0.763587   -1.338680
 O   -2.142103   -1.338593   -0.493907
 C   -2.095532   -0.630883    0.649836
 C   -1.143008   -1.045547    1.714420
 C    0.095384   -0.158928    1.590897
 N    1.032147   -0.548797    0.719262
 C    2.267102    0.215337    0.547700
 C    2.032982    1.402751   -0.416327
 N    1.264616    2.361311    0.116764
 C    0.865267    3.535388   -0.619533
 O    2.514337    1.439697   -1.530588
 C    3.238296   -0.789729   -0.052180
 C    2.322068   -1.674365   -0.912343
 C    1.036386   -1.758601   -0.079048
 O    0.189173    0.880695    2.229835
 C   -2.959127    0.421441    0.556613
 O    2.811884   -2.973693   -1.123498
 H   -4.769359    0.781370   -2.372378
 H   -4.179578    2.174157   -1.442380
 H   -5.461346    1.158719   -0.781919
 H   -1.585828   -0.852107    2.691921
 H   -0.897287   -2.100322    1.609855
 H    2.584596    0.608358    1.519107
 H    0.867777    2.209015    1.039672
 H   -0.214816    3.541350   -0.779690
 H    1.149436    4.436792   -0.074975
 H    1.372865    3.516339   -1.582651
 H    3.705281   -1.397719    0.723507
 H    4.001995   -0.290837   -0.645263
 H    2.122344   -1.170185   -1.866899
 H    0.147552   -1.832674   -0.706756
 H    1.104012   -2.650922    0.553942
 H   -3.157465    1.175188    1.288343
 H    3.585610   -2.925754   -1.694437
