32 
4bnu_ligand_dft.xyz
 N   -0.222805   -0.684020    0.000965
 C   -1.100333    0.360313    0.040057
 N   -0.758955    1.626796    0.106316
 C    0.564648    1.925687    0.051384
 C    1.561843    0.921027   -0.053623
 C    1.049999   -0.406884   -0.018156
 C    0.959188    3.286427    0.070816
 C    2.283122    3.619464   -0.052005
 C    3.269057    2.617682   -0.214526
 C    2.919615    1.291604   -0.217581
 C   -2.945929   -1.328213    0.028780
 C   -4.298417   -1.648561    0.017678
 C   -5.256192   -0.638119    0.009784
 C   -4.856818    0.696899    0.013997
 C   -3.506592    1.021123    0.025301
 C   -2.540653    0.009634    0.031989
 C    3.080268   -1.731785    0.685069
 N    1.915005   -1.523423   -0.015241
 C    1.683860   -2.731149   -0.625853
 N    2.633639   -3.575529   -0.351366
 N    3.518659   -2.941229    0.497527
 H    0.182422    4.036832    0.168554
 H    2.581475    4.663292   -0.044607
 H    4.307411    2.903016   -0.347990
 H    3.676677    0.531529   -0.375543
 H   -2.193998   -2.109213    0.039661
 H   -4.604915   -2.690155    0.017035
 H   -6.312632   -0.889818    0.001158
 H   -5.600800    1.487761    0.008009
 H   -3.183124    2.056097    0.029099
 H    3.524240   -0.990837    1.332623
 H    0.824442   -2.907565   -1.254067
