32 
4bnu_ligand_ani-2x.xyz
 N   -7.699042   -1.985184   39.930208
 C   -8.842841   -1.281512   40.153095
 N   -9.021400   -0.004871   39.936578
 C   -7.979022    0.686000   39.390749
 C   -6.750544    0.060870   39.082310
 C   -6.671422   -1.311248   39.484135
 C   -8.147972    2.067851   39.119575
 C   -7.149050    2.776287   38.505749
 C   -5.946200    2.136707   38.126745
 C   -5.750113    0.805130   38.395957
 C   -9.826000   -3.413367   41.007321
 C  -10.894038   -4.134382   41.527665
 C  -12.115845   -3.506887   41.753913
 C  -12.269022   -2.154265   41.460292
 C  -11.203476   -1.430041   40.940564
 C   -9.978468   -2.058557   40.709991
 C   -4.174614   -1.617880   39.641878
 N   -5.467188   -2.024587   39.396577
 C   -5.339959   -3.374338   39.175004
 N   -4.093242   -3.734859   39.236426
 N   -3.351000   -2.617062   39.540051
 H   -9.092948    2.522438   39.400841
 H   -7.283371    3.833776   38.293328
 H   -5.171203    2.704008   37.620605
 H   -4.843188    0.309085   38.064053
 H   -8.867583   -3.891365   40.831057
 H  -10.771960   -5.190016   41.757549
 H  -12.949980   -4.072249   42.160499
 H  -13.221619   -1.661273   41.637114
 H  -11.306850   -0.374132   40.708402
 H   -3.918647   -0.607452   39.922450
 H   -6.187196   -4.013826   38.967419
