32 
4bnu_ligand_aiqm1.xyz
 N   -7.679638   -1.943165   39.984897
 C   -8.848938   -1.254665   40.178054
 N   -9.025459    0.023189   39.938514
 C   -7.979749    0.703910   39.393492
 C   -6.740255    0.084716   39.115237
 C   -6.666819   -1.278012   39.508890
 C   -8.155246    2.074425   39.071995
 C   -7.146637    2.775444   38.461913
 C   -5.925450    2.138398   38.130763
 C   -5.722775    0.820254   38.450485
 C   -9.809565   -3.402109   41.018911
 C  -10.870505   -4.140210   41.526088
 C  -12.106324   -3.532313   41.740446
 C  -12.276718   -2.180884   41.446454
 C  -11.218787   -1.438367   40.939465
 C   -9.977263   -2.045110   40.721349
 C   -4.172950   -1.640712   39.639385
 N   -5.471577   -2.014792   39.388679
 C   -5.388308   -3.367075   39.176775
 N   -4.153851   -3.772225   39.244559
 N   -3.374825   -2.664680   39.550633
 H   -9.107586    2.526992   39.310476
 H   -7.287347    3.818789   38.212696
 H   -5.154193    2.692487   37.613858
 H   -4.805118    0.331221   38.157193
 H   -8.843884   -3.861852   40.852418
 H  -10.736795   -5.188670   41.756838
 H  -12.932315   -4.109131   42.136212
 H  -13.235296   -1.708035   41.614231
 H  -11.340014   -0.388868   40.709780
 H   -3.878270   -0.640824   39.905244
 H   -6.252545   -3.975328   38.982169
