39 
4bo4_ligand_xtb.xyz
 C   -4.936024    2.707083   35.571420
 C   -4.089216    1.867188   34.620708
 C   -5.673316    0.041995   35.340465
 C   -6.012670   -1.291566   35.526896
 C   -7.288586   -1.668187   35.901031
 C   -8.245713   -0.693433   36.129121
 C   -7.929672    0.638803   35.954655
 C   -6.655804    1.021823   35.526081
 C   -7.133525    3.340246   34.772397
 O   -6.829305    4.514868   34.817894
 N   -8.230582    2.845003   34.126966
 C   -4.252229    0.395151   34.987462
 C   -9.287826    3.542496   33.546576
 C   -9.389174    4.924075   33.521257
 C  -10.484853    5.530359   32.927695
 C  -11.480147    4.763187   32.357407
 C  -11.393264    3.377443   32.375912
 C  -10.306638    2.759406   32.966560
 N   -6.331838    2.373229   35.359243
 O  -10.119290    1.397282   33.048245
 C  -11.110212    0.555024   32.516549
 H   -4.822711    3.775201   35.381753
 H   -4.666086    2.496114   36.611227
 H   -3.041203    2.161284   34.682149
 H   -4.433232    2.043092   33.599220
 H   -5.253369   -2.045458   35.373282
 H   -7.529840   -2.712038   36.031914
 H   -9.237235   -0.968417   36.455909
 H   -8.665534    1.397323   36.176263
 H   -8.320561    1.841050   34.042131
 H   -3.623927    0.165662   35.854725
 H   -3.910514   -0.241216   34.167787
 H   -8.604721    5.511663   33.967273
 H  -10.553442    6.607138   32.913876
 H  -12.334447    5.231573   31.892624
 H  -12.181276    2.793931   31.926461
 H  -12.074662    0.707271   33.011504
 H  -11.227311    0.702203   31.438148
 H  -10.764044   -0.460252   32.706015
