39 
4bo4_ligand_aiqm1.xyz
 C   -4.936794    2.706615   35.556432
 C   -4.152101    1.895254   34.534234
 C   -5.691887    0.028094   35.328481
 C   -6.002134   -1.314987   35.555910
 C   -7.228391   -1.700654   36.085327
 C   -8.163837   -0.729610   36.424116
 C   -7.875034    0.615670   36.217306
 C   -6.659327    0.999836   35.640160
 C   -7.164080    3.291874   34.794931
 O   -6.847620    4.469840   34.722436
 N   -8.326088    2.791243   34.267263
 C   -4.312904    0.402842   34.825983
 C   -9.332089    3.526261   33.611079
 C   -9.433472    4.916690   33.620401
 C  -10.494749    5.538886   32.958656
 C  -11.450711    4.789046   32.295710
 C  -11.360856    3.393359   32.278629
 C  -10.308149    2.770078   32.931910
 N   -6.351853    2.367292   35.433508
 O  -10.120263    1.413531   32.981263
 C  -11.075882    0.611337   32.316460
 H   -4.845920    3.777426   35.402210
 H   -4.606932    2.464566   36.570701
 H   -3.095274    2.166969   34.554662
 H   -4.530939    2.131526   33.536150
 H   -5.264513   -2.072066   35.312793
 H   -7.442555   -2.748858   36.241857
 H   -9.115447   -1.010893   36.855562
 H   -8.598239    1.377671   36.483451
 H   -8.412237    1.797433   34.162834
 H   -3.592038    0.099759   35.592205
 H   -4.073559   -0.191129   33.941459
 H   -8.681444    5.499655   34.128837
 H  -10.563850    6.618388   32.966656
 H  -12.270899    5.274582   31.785155
 H  -12.107897    2.811650   31.757807
 H  -12.073904    0.753448   32.738722
 H  -11.101071    0.831539   31.246443
 H  -10.759061   -0.416563   32.469103
