27 
4bqs_ligand_xtb.xyz
 O    3.367885    1.284380    0.527458
 C    2.842407    0.308102   -0.230411
 O    3.469648   -0.218719   -1.114227
 C    1.444150   -0.033189    0.124534
 C    0.773415    0.661742    1.041877
 C    0.856367   -1.198227   -0.603538
 C   -0.685049   -1.144144   -0.626001
 O   -1.200706   -2.360899   -1.123429
 C   -1.141763   -0.076005   -1.579132
 C   -1.424817    1.200286   -1.375870
 C   -1.371387    2.054663   -0.140573
 O   -1.517816    1.450586    1.125395
 C   -0.648141    0.373787    1.420539
 C   -1.184129   -0.934778    0.812472
 O   -0.772434   -2.070866    1.549073
 H    4.278469    1.460252    0.241919
 H    1.229212    1.505258    1.539857
 H    1.158957   -2.121556   -0.099924
 H    1.246515   -1.234803   -1.621702
 H   -1.045753   -3.032617   -0.447034
 H   -1.232146   -0.470939   -2.581576
 H   -1.702971    1.788287   -2.242012
 H   -2.197957    2.771125   -0.175364
 H   -0.430115    2.630684   -0.179213
 H   -0.705973    0.286862    2.517287
 H   -2.283725   -0.870743    0.796083
 H   -1.122045   -2.008928    2.443613
