57 
4brx_ligand_aiqm1.xyz
 C   -9.962205    3.886526   -0.895225
 C   -9.329449    2.829434   -0.007700
 O   -8.076314    2.423125   -0.526351
 C   -8.238119    1.890626   -1.827891
 C   -8.849383    2.912072   -2.773356
 N  -10.134911    3.345149   -2.243441
 C  -10.922899    4.148813   -3.102820
 C  -12.231606    4.458471   -2.703278
 C  -13.052256    5.233322   -3.504549
 O  -14.336031    5.573539   -3.183666
 C  -14.871310    5.015189   -1.997353
 C  -10.477991    4.604895   -4.344089
 C  -11.321560    5.361524   -5.161100
 C  -12.598316    5.718404   -4.744209
 N  -13.493487    6.494057   -5.506033
 C  -13.196085    7.554150   -6.296603
 N  -11.909250    7.834265   -6.540565
 N  -14.256682    8.228296   -6.785110
 C  -13.914933    9.240325   -7.580302
 C  -11.715063    8.881811   -7.347797
 N  -10.453450    9.260345   -7.673282
 C   -9.225072    8.742485   -7.264901
 C   -9.071092    7.975479   -6.098052
 C   -7.817616    7.513122   -5.722347
 C   -6.686572    7.814033   -6.474073
 C   -6.832689    8.571710   -7.626841
 C   -8.085699    9.029974   -8.046789
 C   -8.195129    9.850147   -9.295297
 O   -9.109384   10.644613   -9.496830
 N   -7.201934    9.680643  -10.205466
 N  -12.688008    9.629129   -7.911086
 C   -7.267671   10.357679  -11.487037
 H   -9.322123    4.781028   -0.910693
 H  -10.932373    4.176520   -0.489165
 H   -9.994636    1.961123    0.078264
 H   -9.137731    3.231764    0.986555
 H   -8.873892    0.997201   -1.786805
 H   -7.244555    1.603601   -2.171639
 H   -8.999656    2.442053   -3.746045
 H   -8.158013    3.758927   -2.899413
 H  -12.586912    4.077039   -1.757121
 H  -14.854733    3.923681   -2.032572
 H  -14.320189    5.356718   -1.117898
 H  -15.897924    5.363960   -1.939889
 H   -9.483799    4.374241   -4.694858
 H  -10.971466    5.717859   -6.117638
 H  -14.458848    6.441484   -5.221081
 H  -14.729546    9.813777   -8.003643
 H  -10.402813   10.000749   -8.367185
 H   -9.932979    7.755587   -5.495300
 H   -7.726951    6.922511   -4.819335
 H   -5.707910    7.475273   -6.164147
 H   -5.951757    8.847020   -8.195479
 H   -6.624514    8.864916  -10.122238
 H   -8.129693   10.035150  -12.072182
 H   -7.355970   11.428638  -11.326197
 H   -6.353552   10.153724  -12.039859
