57 
4brx_ligand_xtb.xyz
 C  -10.622248    2.628637   -1.100937
 C   -9.704833    1.423660   -0.861542
 O   -8.392506    1.816588   -0.540513
 C   -7.848743    2.604639   -1.573720
 C   -8.704731    3.847102   -1.822403
 N  -10.053635    3.432685   -2.161143
 C  -10.861592    4.311437   -2.881658
 C  -12.172245    4.605631   -2.491903
 C  -12.973585    5.436861   -3.254215
 O  -14.268635    5.766607   -2.941791
 C  -14.852752    5.199668   -1.796553
 C  -10.386305    4.868868   -4.068160
 C  -11.178666    5.704807   -4.828629
 C  -12.471237    6.015532   -4.434186
 N  -13.327293    6.841084   -5.158730
 C  -13.055491    7.747710   -6.114596
 N  -11.798367    8.000617   -6.477979
 N  -14.135039    8.359112   -6.636796
 C  -13.865578    9.223895   -7.590978
 C  -11.653836    8.913867   -7.433971
 N  -10.428002    9.258362   -7.887725
 C   -9.178330    8.882607   -7.443193
 C   -8.976913    8.332087   -6.175906
 C   -7.710860    7.996318   -5.744900
 C   -6.610466    8.218081   -6.558758
 C   -6.793775    8.762857   -7.814522
 C   -8.064341    9.085499   -8.285849
 C   -8.246960    9.667102   -9.643583
 O   -9.146647   10.449505   -9.921564
 N   -7.350168    9.261332  -10.569540
 N  -12.671618    9.542620   -8.044410
 C   -7.381317    9.728416  -11.932814
 H  -10.720375    3.197780   -0.161402
 H  -11.601855    2.260393   -1.407692
 H   -9.694878    0.799137   -1.768119
 H  -10.062630    0.831738   -0.017373
 H   -7.786189    2.014206   -2.500563
 H   -6.844597    2.883898   -1.250550
 H   -8.277491    4.437125   -2.630582
 H   -8.711726    4.459078   -0.904483
 H  -12.558795    4.195300   -1.574526
 H  -14.874637    4.106489   -1.854434
 H  -14.331601    5.506417   -0.883941
 H  -15.873412    5.578582   -1.769902
 H   -9.394764    4.630704   -4.418930
 H  -10.803651    6.117198   -5.748835
 H  -14.298785    6.808067   -4.877729
 H  -14.710540    9.724363   -8.048577
 H  -10.427760    9.881219   -8.698641
 H   -9.829042    8.189089   -5.534376
 H   -7.579529    7.577574   -4.758180
 H   -5.616341    7.977907   -6.213554
 H   -5.926454    8.971499   -8.425110
 H   -6.667393    8.561902  -10.329114
 H   -8.198261   10.443812  -12.013696
 H   -6.441749   10.220001  -12.192539
 H   -7.555531    8.900631  -12.622988
