16 
4bs0_ligand_xtb.xyz
 O   51.120132    0.659311  -34.182164
 N   50.113636    0.106380  -33.793368
 O   49.780202    0.014956  -32.633058
 C   49.252293   -0.485072  -34.790883
 C   48.074491   -1.125279  -34.366702
 C   47.218195   -1.704897  -35.269412
 C   47.566696   -1.630976  -36.619271
 N   46.952636   -2.092124  -37.745126
 C   48.763430   -0.978562  -37.028407
 C   49.628613   -0.393118  -36.118974
 N   48.746617   -1.116013  -38.381520
 N   47.648991   -1.784869  -38.751613
 H   47.866299   -1.145738  -33.308080
 H   50.540819    0.106779  -36.403686
 H   46.311827   -2.199373  -34.963635
 H   49.414122   -0.794406  -39.064102
