16 
4bs0_ligand_aiqm1.xyz
 O   51.138520    0.667940  -34.177919
 N   50.125632    0.114315  -33.780304
 O   49.786830    0.022432  -32.613446
 C   49.245049   -0.490111  -34.799726
 C   48.069093   -1.127830  -34.360192
 C   47.217006   -1.706054  -35.274036
 C   47.580376   -1.623713  -36.626453
 N   46.938476   -2.100425  -37.749680
 C   48.756958   -0.982144  -37.027663
 C   49.635923   -0.388460  -36.114335
 N   48.742208   -1.118587  -38.381304
 N   47.642480   -1.791300  -38.782647
 H   47.863105   -1.147198  -33.301955
 H   50.552554    0.115563  -36.384056
 H   46.307576   -2.202643  -34.972106
 H   49.397215   -0.804784  -39.074179
