36 
4bs4_ligand_ani-2x.xyz
 C  -38.102841  -10.789274    5.685434
 C  -39.437428  -11.021603    7.812539
 C  -38.805906  -10.093858    8.644001
 C  -38.745027  -10.290734   10.015404
 C  -40.013830  -12.149836    8.402977
 C  -39.963139  -12.351826    9.773082
 C  -39.318612  -11.423564   10.600758
 C  -39.234954  -11.643412   12.065359
 O  -40.142712  -12.561569   12.502063
 C  -40.232908  -12.835815   13.838756
 C  -41.226178  -13.739000   14.220953
 C  -41.359364  -14.059515   15.561865
 C  -40.510613  -13.490811   16.519173
 C  -39.529529  -12.600310   16.121154
 C  -39.379367  -12.261398   14.772256
 C  -38.332203  -11.311539   14.330487
 O  -37.536849  -10.793337   15.100005
 C  -38.348544  -11.054288   12.897793
 C  -39.502082  -10.814630    6.313020
 C  -40.279733   -9.542830    5.952306
 H  -38.170085  -10.647195    4.600712
 H  -37.503504   -9.967510    6.094461
 H  -37.564015  -11.723124    5.877007
 H  -38.346879   -9.200227    8.224983
 H  -38.263386   -9.536274   10.630353
 H  -40.513868  -12.881267    7.769410
 H  -40.420469  -13.231751   10.214125
 H  -41.868743  -14.167080   13.458524
 H  -42.130234  -14.760199   15.871107
 H  -40.620857  -13.747743   17.568468
 H  -38.850784  -12.140581   16.834577
 H  -37.594059  -10.378434   12.518617
 H  -40.043443  -11.669513    5.888580
 H  -41.305282   -9.581883    6.334194
 H  -39.798307   -8.654404    6.377392
 H  -40.322266   -9.412970    4.864805
