37 
4btk_ligand_xtb.xyz
 N   64.917476   19.014171   25.238058
 C   66.149224   18.860096   24.756478
 N   66.839847   19.712239   24.057214
 C   66.240307   20.894074   23.785376
 C   64.931632   21.191140   24.236026
 C   64.294375   20.155061   24.995491
 C   66.952630   21.846122   23.030704
 C   66.395803   23.059382   22.725280
 C   65.073019   23.364036   23.178664
 C   64.371326   22.444237   23.913902
 N   63.035653   20.348072   25.471230
 C   62.209395   19.519349   26.220311
 C   60.952803   20.021847   26.552083
 C   60.064631   19.261536   27.297633
 C   60.428453   17.987959   27.718409
 C   61.677742   17.494604   27.385763
 C   62.571399   18.242251   26.643585
 O   58.850505   19.805158   27.591554
 O   66.990315   24.042114   22.009393
 C   68.293745   23.816805   21.528476
 O   64.622377   24.594461   22.817686
 C   63.333033   24.984044   23.217367
 H   66.618804   17.910094   24.980535
 H   67.943582   21.569281   22.713287
 H   63.375094   22.690980   24.247575
 H   62.620055   21.240818   25.248838
 H   60.644844   21.008246   26.237923
 H   59.737630   17.392741   28.300024
 H   61.959966   16.505267   27.712879
 H   63.542177   17.858411   26.385233
 H   58.333367   19.177599   28.110396
 H   68.999563   23.650591   22.348242
 H   68.325910   22.962927   20.844603
 H   68.568708   24.722705   20.990975
 H   62.564119   24.323373   22.802039
 H   63.239411   25.012734   24.308531
 H   63.194279   25.988075   22.820136
