45 
4btw_ligand_xtb.xyz
 C   77.547092  133.511675   -7.629335
 C   77.223224  133.371705   -9.114153
 C   77.713738  134.592348   -9.886824
 C   77.089467  135.864868   -9.322724
 C   77.415868  136.007433   -7.839605
 C   76.917845  134.782634   -7.060986
 N   77.248819  134.883476   -5.659199
 C   76.560911  135.572676   -4.737786
 C   75.364728  136.224120   -4.941885
 C   74.657644  136.900305   -3.904698
 O   73.610582  137.508302   -4.041600
 N   75.290696  136.840737   -2.635822
 C   74.749466  137.492603   -1.502562
 C   73.381140  137.505518   -1.261738
 C   72.895074  138.146727   -0.136186
 C   73.758882  138.761269    0.754213
 C   75.123551  138.736860    0.516979
 C   75.620001  138.108072   -0.608167
 N   76.452870  136.256779   -2.428158
 C   77.079632  135.642343   -3.387738
 C   78.337988  135.039270   -3.017468
 N   78.832792  135.055606   -1.743677
 C   80.017848  134.397039   -1.834335
 N   80.228567  134.014040   -3.057171
 N   79.186721  134.410255   -3.798192
 H   77.177030  132.644274   -7.079593
 H   78.629738  133.560502   -7.493128
 H   77.691215  132.467827   -9.508022
 H   76.142942  133.271881   -9.242292
 H   75.827740  134.714591   -7.157380
 H   78.801166  134.657149   -9.809082
 H   77.458715  134.490206  -10.943210
 H   77.460057  136.735805   -9.866325
 H   76.005551  135.826183   -9.453241
 H   78.496505  136.092912   -7.705322
 H   76.954058  136.910392   -7.435708
 H   78.155716  134.528873   -5.362280
 H   74.899370  136.264606   -5.912669
 H   72.706259  137.029141   -1.952466
 H   76.680107  138.093198   -0.811908
 H   71.831269  138.160364    0.047169
 H   73.371242  139.259506    1.630138
 H   75.802929  139.216483    1.206169
 H   78.379683  135.469307   -0.946026
 H   80.678561  134.223137   -1.011010
