45 
4btw_ligand_aiqm1.xyz
 C   77.666377  133.561668   -7.689961
 C   77.330279  133.418782   -9.172652
 C   77.652704  134.705642   -9.929960
 C   76.926253  135.897142   -9.307262
 C   77.284186  136.037279   -7.830875
 C   76.943717  134.752661   -7.068344
 N   77.299646  134.838574   -5.651384
 C   76.624885  135.552388   -4.736221
 C   75.475916  136.272252   -4.969224
 C   74.794758  136.979562   -3.934216
 O   73.777845  137.642546   -4.076107
 N   75.394427  136.880190   -2.647323
 C   74.816797  137.542809   -1.504924
 C   73.477805  137.333904   -1.188103
 C   72.931754  137.983684   -0.085387
 C   73.717708  138.820723    0.703865
 C   75.060234  139.013851    0.383342
 C   75.614121  138.375350   -0.721626
 N   76.529256  136.221741   -2.393283
 C   77.112268  135.578270   -3.360434
 C   78.328587  134.881834   -2.958816
 N   78.749136  134.899031   -1.666890
 C   79.889440  134.158293   -1.659241
 N   80.155795  133.715969   -2.861631
 N   79.159075  134.177203   -3.695108
 H   77.405408  132.650936   -7.145813
 H   78.743864  133.719314   -7.572149
 H   77.879472  132.576391   -9.594412
 H   76.264597  133.191774   -9.281040
 H   75.861698  134.585260   -7.140891
 H   78.731691  134.885508   -9.885393
 H   77.387560  134.604622  -10.983732
 H   77.173964  136.816040   -9.840155
 H   75.844801  135.754995   -9.403948
 H   78.360253  136.215016   -7.730498
 H   76.774901  136.890551   -7.379621
 H   78.150171  134.379058   -5.353803
 H   75.041592  136.339894   -5.951935
 H   72.870264  136.701298   -1.819193
 H   76.656863  138.520104   -0.978974
 H   71.886987  137.836022    0.156792
 H   73.286330  139.323649    1.558904
 H   75.675315  139.667611    0.988154
 H   78.265235  135.374400   -0.922964
 H   80.481065  133.969205   -0.782566
