38 
4btx_ligand_aiqm1.xyz
 C   37.547732   58.036994   -0.847505
 C   38.218835   57.486869    0.239853
 C   39.610785   57.517103    0.294775
 C   40.329209   58.109581   -0.741087
 C   39.669240   58.670913   -1.830220
 C   38.279198   58.617772   -1.882446
 N   37.577483   59.186689   -3.006388
 N   36.501901   59.902899   -2.680121
 C   37.980956   58.929820   -4.338692
 O   38.928361   58.191976   -4.574706
 C   37.201251   59.590795   -5.330774
 C   36.121687   60.386678   -5.030740
 N   35.355194   61.039730   -5.935014
 C   35.517719   61.071258   -7.394388
 C   36.831444   61.717620   -7.839057
 C   35.295110   59.704613   -8.044474
 C   35.804881   60.489162   -3.603965
 C   34.642715   61.234805   -3.095260
 N   34.203465   61.099046   -1.808525
 C   33.186177   61.931818   -1.756178
 N   33.016419   62.534895   -2.941568
 N   33.942456   62.102451   -3.823447
 H   36.465878   58.040155   -0.889692
 H   37.653043   57.033986    1.044010
 H   40.131437   57.083353    1.138560
 H   41.411094   58.137606   -0.702350
 H   40.222634   59.115571   -2.644363
 H   37.511109   59.419412   -6.344987
 H   34.636833   61.634297   -5.548483
 H   34.711089   61.721181   -7.738984
 H   36.838429   61.814905   -8.925309
 H   36.943068   62.710293   -7.402155
 H   37.695210   61.124378   -7.548740
 H   35.304314   59.813436   -9.129683
 H   36.068724   58.991128   -7.771595
 H   34.333037   59.287244   -7.746266
 H   32.337095   63.218369   -3.220394
 H   32.559788   62.126200   -0.903639
