45 
4buq_ligand_dft.xyz
 O    2.826965    3.354859   -0.075543
 C    2.462922    2.382587   -1.047641
 C    2.172967    1.071523   -0.330469
 C   -4.400792   -0.278570    0.494658
 O    1.863842    0.160711   -1.373600
 C    3.370590    0.560685    0.478039
 O    3.666773    1.360683    1.603416
 C    3.076918   -0.832506    1.015059
 O    4.231854   -1.380430    1.625053
 C    2.676836   -1.772906   -0.116460
 O    3.770716   -2.010562   -0.970619
 C    1.555446   -1.144295   -0.944922
 O    0.405781   -1.178507   -0.154154
 C   -0.774897   -0.795729   -0.839050
 C   -1.918468   -0.752675    0.157472
 C   -3.241118   -0.356389   -0.498137
 C   -8.203043    0.606139    0.171671
 C   -6.885028    0.208209    0.833758
 C   -5.724939    0.117142   -0.158052
 H    3.116993    4.151508   -0.532367
 H    3.276590    2.210846   -1.765940
 H    1.569741    2.693670   -1.605161
 H    1.316575    1.200604    0.346640
 H   -4.517015   -1.250228    0.994787
 H   -4.153554    0.445166    1.283932
 H    4.234356    0.493066   -0.202510
 H    3.680876    2.281322    1.297599
 H    2.252083   -0.758011    1.736952
 H    4.605677   -0.673785    2.169884
 H    2.295665   -2.711945    0.309143
 H    4.530269   -2.119413   -0.379177
 H    1.418180   -1.706751   -1.877352
 H   -0.635489    0.187501   -1.308158
 H   -0.984595   -1.520238   -1.642609
 H   -1.663447   -0.038888    0.950830
 H   -2.013224   -1.735796    0.634452
 H   -3.126174    0.617019   -0.995824
 H   -3.489670   -1.078235   -1.288834
 H   -8.116003    1.582076   -0.319759
 H   -9.014483    0.670315    0.903889
 H   -8.496274   -0.124474   -0.590919
 H   -7.004866   -0.759111    1.339514
 H   -6.633308    0.935363    1.617167
 H   -5.605187    1.085432   -0.664887
 H   -5.975528   -0.610335   -0.943280
