56 
4bw1_ligand_aiqm1.xyz
 C   11.636024    5.590419   13.540134
 C   12.405359    6.571964   12.724977
 N   12.174452    7.854682   12.852014
 O   13.030721    8.492538   11.963432
 C   13.755027    7.571385   11.303044
 C   14.749289    8.082557   10.325619
 C   13.412157    6.326781   11.738265
 C   13.936231    5.027351   11.286927
 C   14.025134    4.751149    9.897873
 C   14.519709    3.554693    9.445347
 C   14.956148    2.558643   10.361203
 C   15.485736    1.290071    9.960199
 N   15.578126    0.929780    8.627996
 C   16.099909    1.763247    7.594121
 C   17.205394    2.566029    7.907623
 C   17.770938    3.400973    6.954098
 C   17.238045    3.419563    5.674414
 C   16.136014    2.625609    5.367068
 C   15.522282    1.786024    6.310121
 C   14.265916    0.972594    5.944012
 C   13.876203    1.181096    4.472832
 C   14.490372   -0.537833    6.128210
 C   13.069389    1.433844    6.794648
 C   15.810454    0.379239   10.962312
 C   15.577051    0.735154   12.315558
 N   15.139681    1.899265   12.721091
 C   14.832769    2.814183   11.748951
 C   14.334878    4.062046   12.182797
 C   16.341463   -0.994959   10.731685
 O   17.325213   -1.103108    9.788094
 O   15.984507   -1.974280   11.321705
 H   12.276337    5.118810   14.286147
 H   10.821694    6.101630   14.050597
 H   11.234937    4.794789   12.912312
 H   14.257632    8.674001    9.552359
 H   15.477582    8.716829   10.831924
 H   15.273188    7.249882    9.858708
 H   13.688551    5.496891    9.189466
 H   14.564218    3.361243    8.384795
 H   15.760449   -0.051394    8.481932
 H   17.593339    2.553681    8.921350
 H   18.617762    4.021814    7.209176
 H   17.669422    4.053040    4.911904
 H   15.748121    2.675953    4.362912
 H   13.658375    2.227754    4.251767
 H   14.650571    0.828152    3.788885
 H   12.970109    0.609296    4.271604
 H   15.416390   -0.860862    5.649250
 H   14.512467   -0.833230    7.176500
 H   13.661485   -1.077233    5.664437
 H   13.258292    1.340308    7.864031
 H   12.831273    2.478050    6.574488
 H   12.193847    0.830319    6.545085
 H   15.790549   -0.008063   13.076522
 H   14.280797    4.215436   13.250093
 H   17.635919   -0.227496    9.529382
