59 
4bw3_ligand_dft.xyz
 C   -4.783152    1.661475    2.048271
 C   -4.977453    0.625854    0.988299
 N   -6.145546    0.059623    0.827529
 O   -5.988956   -0.840441   -0.211692
 C   -4.726633   -0.811846   -0.652591
 C   -4.389708   -1.721963   -1.778593
 C   -4.014045    0.103866    0.066140
 C   -2.601503    0.482965   -0.053493
 C   -1.553445   -0.498689   -0.098315
 C    0.099801    1.085131   -0.247564
 C    1.504261    1.402462   -0.337895
 N    2.469243    0.460125   -0.358901
 C    2.377361   -0.917531   -0.730559
 C    2.061074   -1.193632   -2.059636
 C    2.040299   -2.496836   -2.533818
 C    2.357007   -3.529823   -1.660663
 C    2.678467   -3.247111   -0.337149
 C    2.699873   -1.943377    0.176716
 C    3.063769   -1.679946    1.651758
 C    3.282807   -2.994340    2.421288
 C    4.377793   -0.876467    1.746877
 C    1.933753   -0.919898    2.373788
 C    1.831246    2.779482   -0.344793
 C    0.785777    3.726397   -0.223201
 N   -0.491853    3.462308   -0.146304
 C   -0.826825    2.140355   -0.168896
 C   -2.199950    1.792020   -0.082261
 C    3.240275    3.216932   -0.450522
 C   -0.912148   -2.762527   -0.102243
 O    4.198335    2.497536   -0.235576
 O    3.477150    4.491809   -0.814602
 O   -1.940353   -1.780102   -0.027191
 N   -0.286518   -0.213597   -0.193740
 H   -4.723354    2.665401    1.615326
 H   -5.623566    1.639723    2.745118
 H   -3.854796    1.481974    2.598835
 H   -4.172398   -2.728184   -1.407385
 H   -5.227346   -1.781228   -2.478475
 H   -3.505215   -1.359588   -2.305948
 H    3.407458    0.854631   -0.324888
 H    1.830638   -0.361073   -2.717663
 H    1.793358   -2.698420   -3.571569
 H    2.360212   -4.559904   -2.004550
 H    2.920856   -4.080405    0.310537
 H    2.389721   -3.629307    2.411410
 H    4.126350   -3.570379    2.025623
 H    3.509069   -2.762435    3.466992
 H    5.177916   -1.369298    1.183931
 H    4.276641    0.146846    1.379374
 H    4.694059   -0.809987    2.794280
 H    1.767850    0.072601    1.954676
 H    0.989724   -1.471696    2.318727
 H    2.194457   -0.797713    3.431436
 H    1.033653    4.786658   -0.149833
 H   -2.921119    2.602019   -0.047109
 H   -0.345787   -2.666900   -1.031911
 H   -0.217368   -2.665688    0.735658
 H   -1.428081   -3.722032   -0.059792
 H    2.668178    4.917016   -1.126064
