59 
4bw3_ligand_aiqm1.xyz
 C   10.150437    5.231461   12.523940
 C   11.099361    6.262069   12.019945
 N   10.823110    7.533750   12.165329
 O   11.881747    8.226872   11.587360
 C   12.772589    7.350735   11.095428
 C   13.975185    7.918578   10.437217
 C   12.341555    6.082004   11.337403
 C   12.980169    4.810251   10.966172
 C   13.338579    4.530809    9.604334
 C   14.195808    2.471408   10.120826
 C   14.810679    1.240216    9.694229
 N   15.135145    0.978535    8.410511
 C   15.312968    1.898205    7.331453
 C   16.372954    2.802757    7.454795
 C   16.666125    3.701077    6.438825
 C   15.887377    3.687841    5.288357
 C   14.825544    2.792190    5.174455
 C   14.500326    1.871625    6.181714
 C   13.308390    0.909372    6.017928
 C   12.610630    1.106434    4.663395
 C   13.759565   -0.560276    6.063963
 C   12.247939    1.167406    7.101462
 C   15.040192    0.263848   10.686952
 C   14.633114    0.541496   12.012747
 N   14.078063    1.655560   12.425490
 C   13.871254    2.618364   11.475773
 C   13.259116    3.831785   11.878416
 C   15.655977   -1.035258   10.343511
 C   13.330148    5.207831    7.340767
 O   15.708076   -1.498107    9.224782
 O   16.201737   -1.747820   11.350792
 O   13.035484    5.490413    8.714550
 N   13.912850    3.435329    9.197367
 H   10.605290    4.633022   13.314364
 H    9.262763    5.721839   12.918572
 H    9.863148    4.547507   11.724542
 H   13.683388    8.478291    9.547108
 H   14.495223    8.595113   11.115954
 H   14.649657    7.119913   10.133675
 H   15.437628    0.024399    8.258878
 H   16.952832    2.803130    8.372693
 H   17.487276    4.398508    6.544288
 H   16.093515    4.378550    4.480028
 H   14.241032    2.824572    4.268350
 H   12.206328    2.115160    4.552991
 H   13.277595    0.898575    3.824437
 H   11.774490    0.409490    4.600467
 H   14.547649   -0.746075    5.331148
 H   14.113010   -0.872083    7.045273
 H   12.907464   -1.198066    5.811676
 H   12.626261    0.989323    8.107969
 H   11.894546    2.201931    7.051539
 H   11.391623    0.508180    6.935727
 H   14.742241   -0.223617   12.778291
 H   13.020196    3.940470   12.926787
 H   14.402741    5.111719    7.183620
 H   12.842427    4.288878    7.027507
 H   12.933704    6.053866    6.788035
 H   16.210779   -1.224254   12.156092
