59 
4bw3_ligand_ani-2x.xyz
 C   10.380444    5.262711   13.019231
 C   11.157978    6.292638   12.258341
 N   10.844536    7.554522   12.377304
 O   11.726166    8.244731   11.573348
 C   12.563978    7.395369   10.967938
 C   13.601391    8.010424   10.091553
 C   12.247826    6.114423   11.341405
 C   12.872622    4.841211   10.953327
 C   13.216320    4.539527    9.593238
 C   14.077189    2.476322   10.138721
 C   14.700480    1.254408    9.731039
 N   14.968642    0.971082    8.405625
 C   15.338508    1.837223    7.360723
 C   16.486696    2.625348    7.517379
 C   16.915410    3.473398    6.504846
 C   16.185984    3.541698    5.324444
 C   15.045626    2.759435    5.170014
 C   14.599666    1.876017    6.161944
 C   13.378033    0.959773    5.944053
 C   12.639385    1.335366    4.645735
 C   13.810712   -0.516924    5.800433
 C   12.346719    1.073341    7.088319
 C   14.948566    0.291688   10.712258
 C   14.583653    0.596542   12.048130
 N   14.022287    1.706220   12.454535
 C   13.769695    2.652591   11.507189
 C   13.154217    3.869734   11.881174
 C   15.498716   -1.043406   10.335422
 C   13.354886    5.126460    7.329944
 O   15.402150   -1.525914    9.222193
 O   16.122780   -1.750552   11.294642
 O   12.937703    5.459948    8.653026
 N   13.755775    3.417495    9.204363
 H   10.924325    4.942504   13.916090
 H    9.421862    5.676953   13.339700
 H   10.206533    4.375360   12.404310
 H   13.312255    7.913783    9.041086
 H   13.719555    9.067964   10.336462
 H   14.558931    7.495364   10.204795
 H   15.180804   -0.014275    8.268089
 H   17.045983    2.564262    8.449468
 H   17.805873    4.082210    6.641725
 H   16.492853    4.207099    4.521224
 H   14.495095    2.850829    4.241475
 H   12.309896    2.381653    4.659436
 H   13.267533    1.178403    3.761379
 H   11.750669    0.706002    4.529271
 H   14.544327   -0.628472    4.993699
 H   14.245713   -0.941240    6.711693
 H   12.935465   -1.129314    5.552276
 H   12.654567    0.549403    7.996211
 H   12.165067    2.121585    7.352856
 H   11.396446    0.635815    6.764904
 H   14.728111   -0.151145   12.834133
 H   12.926139    4.006466   12.932122
 H   14.423686    4.892647    7.313963
 H   12.808473    4.251899    6.961978
 H   13.138053    5.999255    6.712418
 H   16.272046   -1.202759   12.077596
