71 
4c1t_ligand_dft.xyz
 O   -1.234440    2.269291    0.368744
 C   -0.674753    2.868301   -0.775104
 C    0.821746    3.054950   -0.603816
 O    1.485093    1.790826   -0.572129
 C    1.263281    3.743113    0.691435
 O    1.231792    5.151568    0.661411
 C    2.694594    3.244579    0.797710
 O    3.272729    3.325521    2.072605
 C    2.536712    1.791898    0.375528
 C    3.147826   -1.106118   -0.450296
 C    4.086378   -0.030318    0.107854
 C    5.476344   -0.196670   -0.491798
 C    5.984097   -1.619476   -0.312033
 C    4.949939   -2.586744   -0.878220
 O    3.703634    1.294406   -0.214112
 O    6.408764    0.673204    0.107442
 O    7.195720   -1.819067   -0.997562
 O    3.700635   -2.391817   -0.235863
 C   -1.990333   -1.782138    0.197360
 C   -1.177408   -3.034722    0.499658
 C    0.258736   -2.595947    0.783190
 C    0.829799   -1.695122   -0.305836
 C   -0.163510   -0.617571   -0.722605
 O   -1.723305   -3.676512    1.623840
 O    1.034596   -3.758452    0.961816
 O    1.968110   -1.053083    0.259384
 O   -1.441353   -1.188322   -0.981446
 O   -7.792477    1.031268    0.255475
 C   -6.816419    0.157368   -0.175675
 C   -5.548077    0.951446   -0.472625
 C   -4.400381   -0.005192   -0.782377
 C   -4.244404   -1.057247    0.312764
 C   -5.595366   -1.736641    0.529476
 O   -5.778998    1.800740   -1.567816
 O   -3.242356    0.796821   -0.976701
 O   -3.314957   -2.076802   -0.028178
 O   -6.572001   -0.776434    0.861303
 H   -2.082887    1.868267    0.107045
 H   -1.114465    3.862712   -0.962925
 H   -0.848870    2.263838   -1.676798
 H    1.188296    3.645972   -1.457316
 H    0.685225    3.344379    1.535323
 H    0.336195    5.437082    0.874455
 H    3.303043    3.766728    0.041745
 H    3.266233    4.257634    2.324109
 H    2.262074    1.169705    1.234108
 H    2.981853   -0.943972   -1.530167
 H    4.133931   -0.163717    1.197466
 H    5.404567    0.002227   -1.574543
 H    6.099540   -1.812471    0.765962
 H    4.859841   -2.436308   -1.964920
 H    5.240905   -3.621810   -0.694874
 H    6.019723    1.558179    0.082083
 H    7.779357   -1.093872   -0.736363
 H   -1.891737   -1.064174    1.030301
 H   -1.201502   -3.681864   -0.389859
 H    0.234978   -2.001764    1.712336
 H    1.121731   -2.318146   -1.159669
 H    0.157284   -0.125494   -1.640746
 H   -0.236399    0.148409    0.057835
 H   -1.068795   -4.331677    1.902301
 H    1.964252   -3.485157    0.994132
 H   -8.590350    0.515657    0.427316
 H   -7.124121   -0.390340   -1.087038
 H   -5.304599    1.521705    0.438036
 H   -4.633325   -0.528722   -1.722172
 H   -3.934117   -0.567322    1.246557
 H   -5.872226   -2.294570   -0.379986
 H   -5.534884   -2.441380    1.359950
 H   -4.910177    2.129760   -1.835414
 H   -2.532869    0.178774   -1.251531
