54 
4c1u_ligand_dft.xyz
 O   -7.209892    1.462730   -0.679848
 C   -6.908499    0.087670   -0.704452
 C   -5.656358   -0.225216    0.089343
 O   -4.570637    0.500118   -0.508228
 C   -5.194855   -1.678111    0.052339
 O   -5.918229   -2.445087    0.979574
 C   -3.710630   -1.524807    0.351329
 O   -2.972458   -2.617286   -0.120788
 C   -3.363664   -0.190934   -0.325981
 C    1.207075    0.453717   -0.013863
 C   -0.156963   -0.072065    0.436829
 C   -1.233158    0.902854   -0.018159
 C   -0.913143    2.310901    0.481317
 C    0.499846    2.701242    0.063629
 O   -0.390639   -1.344397   -0.137712
 O   -2.506905    0.580066    0.485972
 O   -1.811805    3.240960   -0.060574
 O    1.430975    1.736786    0.545510
 O    7.402112   -1.537164   -0.541198
 C    6.173819   -1.214594    0.012106
 C    5.788054    0.230786   -0.283988
 C    4.408130    0.541259    0.278106
 C    3.409265   -0.491577   -0.246012
 C    3.952343   -1.907792   -0.018108
 O    6.777153    1.062637    0.278122
 O    4.115816    1.864169   -0.104625
 O    2.158974   -0.435789    0.444000
 O    5.228860   -2.067735   -0.583228
 H   -6.425916    1.917598   -1.013932
 H   -7.756903   -0.438924   -0.259282
 H   -6.775845   -0.280164   -1.734782
 H   -5.790192    0.094900    1.131724
 H   -5.301395   -2.075828   -0.970295
 H   -5.565334   -3.342696    0.944985
 H   -3.592814   -1.387473    1.437677
 H   -2.033865   -2.374016   -0.043426
 H   -2.889670   -0.355504   -1.302403
 H    1.239830    0.527708   -1.115900
 H   -0.153498   -0.130653    1.533899
 H   -1.254485    0.921807   -1.118981
 H   -0.962300    2.299870    1.581369
 H    0.558324    2.785627   -1.031627
 H    0.784224    3.657819    0.502830
 H    0.380686   -1.885509    0.083952
 H   -2.697125    2.878946    0.093838
 H    7.961171   -0.754661   -0.432984
 H    6.174524   -1.378729    1.108074
 H    5.756252    0.341194   -1.379068
 H    4.445839    0.446779    1.375893
 H    3.246197   -0.319770   -1.318896
 H    3.300803   -2.642858   -0.495852
 H    3.966681   -2.109140    1.065754
 H    6.459988    1.970764    0.178708
 H    3.250654    2.092847    0.276277
