54 
4c1u_ligand_aiqm1.xyz
 O    6.533458    3.028483    0.010241
 C    6.607871    1.642119   -0.252888
 C    5.325513    1.134780   -0.864291
 O    4.276443    1.407576    0.082042
 C    5.246703   -0.367749   -1.069620
 O    5.904821   -0.734600   -2.261571
 C    3.743990   -0.586143   -1.076522
 O    3.396887   -1.892554   -0.674874
 C    3.233654    0.485439   -0.113302
 C   -1.261487    0.140882    0.534269
 C    0.041885    0.001993   -0.239381
 C    0.949216    1.169810    0.108796
 C    0.219256    2.479754   -0.167760
 C   -1.120673    2.490825    0.554598
 O    0.704365   -1.210739    0.102722
 O    2.123156    1.153804   -0.680362
 O    0.959924    3.576763    0.318840
 O   -1.903396    1.354103    0.182751
 O   -6.637145   -3.134490    2.142021
 C   -5.588071   -2.684152    1.348682
 C   -5.692601   -1.189472    1.061061
 C   -4.501674   -0.737951    0.239294
 C   -3.231473   -1.132137    0.988750
 C   -3.268969   -2.620598    1.340016
 O   -6.919682   -0.989038    0.386540
 O   -4.635475    0.657087    0.039298
 O   -2.078171   -0.918601    0.164560
 O   -4.423914   -2.932846    2.093680
 H    5.748115    3.170853    0.546021
 H    7.431996    1.491032   -0.947539
 H    6.816981    1.076947    0.666358
 H    5.122064    1.643097   -1.814560
 H    5.682479   -0.882940   -0.203331
 H    5.861807   -1.689385   -2.337969
 H    3.362623   -0.363479   -2.080065
 H    2.452779   -1.870452   -0.471672
 H    2.965748    0.053766    0.855393
 H   -1.084651    0.128657    1.621673
 H   -0.189511    0.023218   -1.308388
 H    1.205539    1.113011    1.173255
 H    0.052780    2.565048   -1.248790
 H   -0.958164    2.505974    1.640307
 H   -1.694134    3.365802    0.263738
 H    0.079487   -1.929624   -0.026173
 H    1.838385    3.528604   -0.066310
 H   -7.427952   -2.716571    1.788424
 H   -5.553452   -3.238504    0.393941
 H   -5.682171   -0.647001    2.013631
 H   -4.509831   -1.256282   -0.729471
 H   -3.155866   -0.533190    1.900718
 H   -2.416133   -2.874847    1.967357
 H   -3.228645   -3.215162    0.416985
 H   -6.965463   -0.064524    0.134868
 H   -3.758620    1.023906   -0.125593
