30 
4c35_ligand_dft.xyz
 C   12.009085   83.881151   84.518388
 N   12.663373   85.067644   84.562653
 O   12.580130   82.809392   84.372886
 C   10.512259   83.958449   84.658916
 N    8.003673   86.422381   85.111469
 O    9.115394   92.759936   85.794363
 C    9.787507   82.775392   84.599534
 N   10.225030   86.456482   84.947667
 C    8.390188   82.751141   84.715030
 C    7.658365   83.917145   84.891871
 C    8.383639   85.103266   84.952560
 C    9.144344   87.183311   85.111158
 C    9.129224   88.638350   85.283013
 C    7.983659   89.404537   85.038940
 C    7.992557   90.778791   85.215030
 C    9.161445   91.414742   85.636745
 C   10.315010   90.663625   85.874013
 C   10.294314   89.288590   85.697544
 C    9.785228   85.147447   84.845616
 H   13.665352   85.050245   84.458853
 H   12.162803   85.942089   84.675675
 H    7.076728   86.750767   85.327555
 H    9.980546   93.081049   86.076155
 H   10.344892   81.855646   84.457714
 H    7.870274   81.799864   84.662282
 H    6.576331   83.900622   84.977564
 H    7.073328   88.934232   84.676413
 H    7.109392   91.377201   85.020239
 H   11.228644   91.154347   86.201693
 H   11.185286   88.699164   85.885462
