30 
4c35_ligand_ani-2x.xyz
 C   12.014883   83.834753   84.557534
 N   12.721739   84.990562   84.597595
 O   12.543923   82.740189   84.430906
 C   10.517488   83.962068   84.670974
 N    8.002258   86.436485   85.084823
 O    9.094763   92.778972   85.795875
 C    9.790681   82.781620   84.589104
 N   10.220620   86.478938   84.979775
 C    8.392884   82.762281   84.672553
 C    7.671297   83.934320   84.842760
 C    8.394186   85.120440   84.927235
 C    9.136291   87.201414   85.116947
 C    9.112401   88.657827   85.288096
 C    7.945966   89.411332   85.116682
 C    7.954116   90.784417   85.287333
 C    9.142701   91.430220   85.636465
 C   10.314908   90.693956   85.803942
 C   10.293350   89.318710   85.625552
 C    9.799145   85.164944   84.849551
 H   13.725664   84.926867   84.543621
 H   12.257300   85.879549   84.730594
 H    7.068030   86.749782   85.297505
 H    9.973030   93.101618   86.033919
 H   10.356059   81.864278   84.455528
 H    7.866722   81.814327   84.602424
 H    6.586198   83.919073   84.906295
 H    7.016161   88.925166   84.827163
 H    7.051726   91.374008   85.156797
 H   11.243818   91.195256   86.071158
 H   11.199690   88.733630   85.748294
