30 
4c35_ligand_xtb.xyz
 C   12.011759   83.915466   84.705408
 N   12.604036   85.116945   84.856556
 O   12.632085   82.876599   84.576248
 C   10.521046   83.967790   84.710015
 N    7.975974   86.411778   85.011887
 O    9.193075   92.726559   85.802514
 C    9.798506   82.794221   84.562545
 N   10.197446   86.446570   85.019104
 C    8.405608   82.770421   84.557752
 C    7.665512   83.928361   84.701348
 C    8.372444   85.110074   84.849759
 C    9.109303   87.174770   85.108597
 C    9.108736   88.611353   85.288076
 C    7.931317   89.357073   85.379477
 C    7.974035   90.723484   85.550304
 C    9.198767   91.382218   85.634493
 C   10.377890   90.647151   85.544380
 C   10.331107   89.280780   85.373553
 C    9.786970   85.151683   84.856858
 H   13.608382   85.167741   84.864034
 H   12.035058   85.947249   84.959449
 H    7.026267   86.738569   85.051009
 H   10.097639   93.060589   85.845664
 H   10.357452   81.877594   84.448832
 H    7.895107   81.826701   84.439306
 H    6.585769   83.914828   84.698218
 H    6.966326   88.876261   85.317900
 H    7.069022   91.305295   85.621637
 H   11.331684   91.153788   85.609109
 H   11.239677   88.705088   85.302967
