30 
4c35_ligand_aiqm1.xyz
 C   12.012938   83.873369   84.638305
 N   12.676582   85.043761   84.769706
 O   12.577417   82.800706   84.487706
 C   10.514172   83.958928   84.691205
 N    7.995852   86.431413   85.045504
 O    9.118106   92.757835   85.805820
 C    9.790150   82.780628   84.570545
 N   10.226824   86.461362   84.998167
 C    8.387663   82.761681   84.605826
 C    7.656481   83.930525   84.762893
 C    8.383151   85.113267   84.883801
 C    9.138407   87.185661   85.111328
 C    9.124724   88.636107   85.289688
 C    7.935729   89.374703   85.268518
 C    7.948193   90.749891   85.441420
 C    9.162758   91.407085   85.638894
 C   10.356854   90.687079   85.658069
 C   10.332703   89.312935   85.483311
 C    9.787607   85.151894   84.852803
 H   13.677768   85.015437   84.722485
 H   12.177487   85.912185   84.876842
 H    7.059748   86.775576   85.144534
 H   10.010158   93.089460   85.927306
 H   10.347882   81.864716   84.446346
 H    7.865851   81.818435   84.508226
 H    6.573958   83.919256   84.789443
 H    6.985391   88.882367   85.102851
 H    7.034416   91.327729   85.424197
 H   11.299352   91.200545   85.807499
 H   11.249677   88.742465   85.493761
