32 
4c36_ligand_aiqm1.xyz
 C  -26.614212   -9.891439    0.323902
 N  -29.755962   -9.979647   -1.652661
 O  -32.158524   -9.418098   -5.444866
 C  -25.767790   -9.442184   -0.708850
 N  -28.409776   -9.266687   -3.314694
 C  -26.249543   -9.196528   -1.984431
 N  -30.866543   -9.291319   -5.046792
 C  -27.615013   -9.419509   -2.199403
 N  -32.977459   -9.796991   -4.394105
 C  -28.467434   -9.861750   -1.175929
 N  -32.608698  -10.172254   -2.094660
 C  -27.964367  -10.103893    0.108970
 C  -29.675674   -9.620031   -2.917415
 C  -27.910230   -8.996736   -4.666980
 C  -27.570801  -10.270700   -5.395040
 C  -26.351552  -11.063003   -5.014415
 C  -26.383705  -10.303994   -6.313730
 C  -30.848540   -9.590535   -3.773186
 C  -32.185297   -9.898454   -3.359537
 H  -26.197999  -10.069369    1.305664
 H  -24.717774   -9.283682   -0.503864
 H  -25.597130   -8.846771   -2.774152
 H  -33.460257  -10.701822   -2.023149
 H  -31.873237  -10.396905   -1.441832
 H  -28.617668  -10.440902    0.901235
 H  -27.027100   -8.366801   -4.558566
 H  -28.673440   -8.436766   -5.209098
 H  -28.427681  -10.853260   -5.704143
 H  -26.417705  -12.139918   -5.057628
 H  -25.726098  -10.675880   -4.221161
 H  -25.781397   -9.407208   -6.381183
 H  -26.470196  -10.863766   -7.232198
