30 
4c38_ligand_aiqm1.xyz
 C   25.402582  -10.049299    0.427517
 C   25.806691   -9.870124    1.743795
 C   27.182465   -9.907769    1.981532
 N   27.939283   -9.778033    3.117589
 C   27.391601   -9.633977    4.466959
 C   27.013251  -10.982810    5.056557
 C   29.246952   -9.925412    2.708682
 N   29.379441  -10.121838    1.413185
 C   28.084620  -10.115160    0.932625
 C   27.572171  -10.281079   -0.356923
 N   26.268385  -10.250272   -0.601353
 C   30.393954   -9.888012    3.595532
 C   31.764964   -9.947911    3.185144
 N   32.241045   -9.927211    1.909418
 N   32.520107   -9.944722    4.251998
 O   31.641855   -9.875519    5.320882
 C   23.951769  -10.037451    0.046808
 N   30.352298   -9.837624    4.902049
 H   25.085990   -9.715882    2.536345
 H   26.521140   -8.983174    4.383118
 H   28.136222   -9.135540    5.082916
 H   26.271315  -11.486666    4.434553
 H   27.891441  -11.621578    5.142499
 H   26.592413  -10.846966    6.053491
 H   28.230918  -10.441297   -1.200218
 H   31.560311  -10.149233    1.199006
 H   33.163903  -10.306867    1.784428
 H   23.679047  -10.990619   -0.406639
 H   23.320307   -9.858295    0.918266
 H   23.769856   -9.263259   -0.698359
