52 
4c7t_ligand_aiqm1.xyz
 C   -8.891890    5.147151   -6.052376
 O   -9.410609    4.681522   -4.814594
 C  -10.683586    5.033993   -4.504222
 C  -11.446781    5.913012   -5.271866
 C  -11.194004    4.462699   -3.334087
 O  -10.452085    3.571691   -2.610231
 C   -9.646784    4.211258   -1.624047
 C  -12.481477    4.821743   -2.915608
 O  -12.885365    4.267566   -1.744803
 C  -14.189672    4.588014   -1.291552
 C  -13.252622    5.704977   -3.671657
 C  -12.726797    6.257320   -4.842398
 N  -13.554694    7.135662   -5.573544
 C  -13.204749    8.162562   -6.394442
 N  -11.914929    8.491039   -6.507999
 N  -14.233983    8.770261   -7.016812
 C  -13.850243    9.744503   -7.839825
 N  -12.608406   10.157244   -8.078041
 C  -11.677719    9.498334   -7.360654
 N  -10.396920    9.900950   -7.547064
 C   -9.255296    9.372880   -6.927949
 C   -9.237489    9.080444   -5.557590
 C   -8.090589    8.576451   -4.957949
 C   -6.932491    8.374873   -5.708663
 C   -6.941320    8.679535   -7.064264
 C   -8.090181    9.169979   -7.690162
 C   -8.061550    9.532398   -9.144192
 O   -8.790764   10.392990   -9.626331
 N   -7.157985    8.862376   -9.900541
 C   -7.103291    9.075853  -11.334962
 H   -9.479143    4.769583   -6.890824
 H   -8.872937    6.238458   -6.092690
 H   -7.879164    4.760322   -6.110045
 H  -11.039003    6.357586   -6.161248
 H   -8.947272    4.909967   -2.094038
 H  -10.272547    4.750109   -0.906337
 H   -9.096438    3.422775   -1.115829
 H  -14.295338    5.660296   -1.106922
 H  -14.950189    4.269835   -2.007872
 H  -14.320721    4.046065   -0.360364
 H  -14.248285    5.987255   -3.362135
 H  -14.548559    7.038077   -5.449274
 H  -14.637256   10.256768   -8.377552
 H  -10.233138   10.457432   -8.379001
 H  -10.140592    9.229681   -4.981768
 H   -8.098531    8.336386   -3.901370
 H   -6.032885    7.993992   -5.244585
 H   -6.030109    8.567921   -7.640081
 H   -6.748508    8.030926   -9.517144
 H   -8.018528    8.747043  -11.828685
 H   -6.977797   10.136005  -11.536768
 H   -6.253489    8.531643  -11.739939
