35 
4c94_ligand_aiqm1.xyz
 O    5.787980    0.621461   -0.859930
 C    4.441148    0.486805   -0.631797
 C    4.091877    0.089985    0.661600
 O    5.048809   -0.141220    1.598782
 C    2.752701   -0.074530    0.986005
 C    3.460382    0.714548   -1.581095
 C    2.114786    0.540609   -1.255412
 C    1.753379    0.142814    0.030520
 C    0.317128   -0.110164    0.416788
 O   -0.506094    0.782937   -0.350880
 C   -0.123311   -1.555155    0.167866
 O    0.676697   -2.486735    0.878019
 C   -1.543194   -1.733269    0.667181
 C   -2.401551   -0.550032    0.300505
 C   -1.850182    0.638088   -0.175190
 C   -2.641196    1.732094   -0.528453
 C   -3.790992   -0.601351    0.432742
 O   -4.306549   -1.767083    0.917207
 C   -4.610090    0.467447    0.089813
 C   -4.017685    1.628557   -0.395970
 O   -4.856686    2.653506   -0.725279
 H    5.927475    0.931384   -1.756531
 H    5.904327    0.040322    1.195634
 H    2.504253   -0.386035    1.993218
 H    3.742260    1.030194   -2.580201
 H    1.352508    0.725301   -1.997056
 H    0.188055    0.108116    1.486774
 H   -0.071842   -1.742086   -0.912983
 H    1.584387   -2.410630    0.569940
 H   -1.963414   -2.652634    0.254362
 H   -1.521604   -1.868964    1.751814
 H   -2.159230    2.627625   -0.899953
 H   -5.263394   -1.699047    0.939692
 H   -5.688325    0.422156    0.189834
 H   -4.333214    3.395088   -1.034867
