45 
4ca4_ligand_ani-2x.xyz
 O   -4.439665    2.343484   -0.234502
 C   -3.850826    1.653702    0.865114
 C   -3.237902    0.361393    0.350877
 C    3.602519    0.321142   -0.444041
 O   -2.692191   -0.273012    1.507369
 C   -4.262836   -0.568387   -0.301783
 O   -4.783269   -0.058339   -1.510082
 C   -3.606671   -1.894060   -0.654220
 O   -4.582507   -2.800249   -1.132384
 C   -2.992747   -2.511034    0.592404
 O   -4.010859   -2.840932    1.509287
 C   -2.062731   -1.508387    1.267697
 O   -0.942136   -1.376222    0.442949
 C    0.069088   -0.530197    0.975533
 C    1.249542   -0.546612    0.019201
 C    2.410474    0.315508    0.511416
 C    7.113011    2.052627   -0.407882
 C    5.958067    1.188919   -0.909278
 C    4.765117    1.182074    0.045529
 H   -5.013468    3.039899    0.103105
 H   -4.604947    1.393691    1.620679
 H   -3.071230    2.261846    1.340645
 H   -2.449334    0.591896   -0.383139
 H    3.952394   -0.711002   -0.595728
 H    3.275351    0.678861   -1.431847
 H   -5.065839   -0.765494    0.429525
 H   -4.934693    0.892314   -1.374044
 H   -2.827663   -1.720192   -1.411828
 H   -5.126804   -2.302415   -1.761212
 H   -2.401596   -3.396041    0.311396
 H   -4.689928   -3.284804    0.979168
 H   -1.760785   -1.885587    2.254681
 H   -0.316603    0.491797    1.108126
 H    0.368456   -0.895991    1.972272
 H    0.910305   -0.196312   -0.964386
 H    1.580940   -1.584769   -0.111755
 H    2.060065    1.348344    0.661400
 H    2.738647   -0.043089    1.499265
 H    6.796728    3.094470   -0.278686
 H    7.955453    2.042406   -1.107221
 H    7.477928    1.695355    0.562351
 H    6.305661    0.157160   -1.058204
 H    5.628633    1.547882   -1.894235
 H    4.415710    2.214425    0.196904
 H    5.093042    0.824329    1.033065
