40 
4cby_ligand_aiqm1.xyz
 C   -2.057276    2.123156    0.797000
 C   -0.993968    1.522077   -0.057955
 C   -0.422915    0.202285    0.408156
 C   -1.338915    0.233389   -0.787757
 C    1.035123   -0.091168    0.316491
 C    1.613445   -0.716221   -0.796147
 C    2.978243   -0.979508   -0.835773
 C    3.798217   -0.620998    0.239049
 C    3.226286   -0.003940    1.356488
 C    1.861043    0.255334    1.392933
 C   -2.735869   -0.287978   -0.782547
 C   -3.505917   -0.142096   -1.943377
 C   -4.828132   -0.578385   -1.985559
 C   -5.399919   -1.171044   -0.863783
 C   -4.639142   -1.333304    0.290013
 C   -3.315223   -0.900891    0.334744
 C    5.229695   -0.888529    0.198402
 O    5.730563   -1.525404   -0.908456
 C    7.056698   -1.629649   -0.668015
 N    7.446048   -1.136390    0.457944
 C    6.276320   -0.651461    1.032468
 O   -2.291181    1.806763    1.955322
 N   -2.784555    3.093704    0.177862
 O   -3.930991    3.489932    0.860720
 H   -0.335843    2.216223   -0.563252
 H   -0.868228   -0.119464    1.340127
 H   -0.848840    0.157950   -1.752723
 H    0.990769   -1.014229   -1.631062
 H    3.412631   -1.466618   -1.698590
 H    3.848128    0.273624    2.197190
 H    1.429129    0.733492    2.262161
 H   -3.062818    0.315098   -2.821135
 H   -5.405302   -0.450994   -2.891369
 H   -6.428042   -1.505151   -0.889148
 H   -5.075271   -1.798005    1.164599
 H   -2.742829   -1.032500    1.242889
 H    7.651446   -2.108844   -1.425597
 H    6.275714   -0.171665    1.994826
 H   -2.972146    2.953572   -0.803701
 H   -3.876675    2.947638    1.670663
