40 
4cby_ligand_xtb.xyz
 C   -2.158649    1.959707    1.086704
 C   -1.069489    1.440707    0.224949
 C   -0.500569    0.081979    0.534177
 C   -1.344682    0.244052   -0.690355
 C    0.960831   -0.156724    0.407535
 C    1.443105   -1.169818   -0.413067
 C    2.799884   -1.396575   -0.525540
 C    3.708718   -0.610424    0.183627
 C    3.224407    0.404496    1.010448
 C    1.866787    0.624358    1.118269
 C   -2.708976   -0.308324   -0.862229
 C   -3.303789   -0.205422   -2.118022
 C   -4.580128   -0.686046   -2.340984
 C   -5.285963   -1.280634   -1.308832
 C   -4.702507   -1.392832   -0.059085
 C   -3.423702   -0.914192    0.165065
 C    5.131080   -0.848159    0.062214
 O    5.594925   -1.839809   -0.746573
 C    6.923983   -1.790154   -0.631033
 N    7.354499   -0.870002    0.166647
 C    6.231941   -0.251678    0.624815
 O   -2.719895    1.345071    1.979320
 N   -2.475256    3.255644    0.860745
 O   -3.564678    3.776905    1.568789
 H   -0.407787    2.200314   -0.173078
 H   -0.959054   -0.408511    1.385961
 H   -0.795504    0.299476   -1.625983
 H    0.745214   -1.784663   -0.962614
 H    3.168379   -2.184991   -1.164172
 H    3.916442    1.017430    1.566032
 H    1.496450    1.408865    1.762038
 H   -2.757396    0.259161   -2.927626
 H   -5.024684   -0.595400   -3.321346
 H   -6.284295   -1.655394   -1.479180
 H   -5.245796   -1.856923    0.750699
 H   -2.994883   -1.006478    1.149376
 H    7.523136   -2.485907   -1.183038
 H    6.295877    0.563251    1.314496
 H   -2.278004    3.779462    0.024626
 H   -3.800469    3.037982    2.170327
