40 
4cby_ligand_ani-2x.xyz
 C   -2.051003    2.141098    1.023531
 C   -0.989543    1.570226    0.125692
 C   -0.438432    0.220696    0.486121
 C   -1.298698    0.356713   -0.736933
 C    1.020354   -0.075680    0.370465
 C    1.519530   -0.975740   -0.574940
 C    2.875543   -1.249228   -0.650486
 C    3.771632   -0.621212    0.223308
 C    3.276320    0.278156    1.170777
 C    1.917459    0.545029    1.243249
 C   -2.677195   -0.214473   -0.837446
 C   -3.405559    0.002633   -2.013514
 C   -4.711763   -0.457439   -2.145752
 C   -5.312099   -1.155573   -1.101932
 C   -4.593030   -1.392644    0.065943
 C   -3.287259   -0.929333    0.196271
 C    5.202875   -0.901233    0.148682
 O    5.631084   -1.793578   -0.800121
 C    6.967374   -1.851383   -0.636663
 N    7.430479   -1.101383    0.302268
 C    6.305958   -0.481363    0.819325
 O   -2.122655    2.023455    2.243731
 N   -2.989693    2.861671    0.353283
 O   -4.109331    3.238856    1.085476
 H   -0.303837    2.300273   -0.298576
 H   -0.906139   -0.176247    1.382844
 H   -0.756937    0.346075   -1.681009
 H    0.824034   -1.470909   -1.248910
 H    3.247537   -1.949588   -1.391166
 H    3.960305    0.771353    1.855886
 H    1.532466    1.251859    1.974316
 H   -2.942460    0.546204   -2.835962
 H   -5.258230   -0.270657   -3.066912
 H   -6.332388   -1.516850   -1.200721
 H   -5.048565   -1.943027    0.885524
 H   -2.742033   -1.153213    1.110340
 H    7.513592   -2.510483   -1.297903
 H    6.380882    0.220873    1.636634
 H   -3.237643    2.577880   -0.585830
 H   -3.863432    2.937985    1.985210
