47 
4cd5_ligand_aiqm1.xyz
 C    1.215843   -0.043953    0.901922
 C    2.032479   -1.140258    1.591333
 C    3.514223   -0.861437    1.394903
 C    3.828267   -0.638829   -0.081444
 C    2.940193    0.459281   -0.652178
 C    3.112616    0.652162   -2.145598
 O    1.795180   -2.418486    1.030736
 O    4.317197   -1.900599    1.918283
 O    5.177609   -0.242792   -0.243702
 O    1.568187    0.088759   -0.451122
 O    2.313559    1.713208   -2.629754
 C   -2.599827   -0.339141   -1.282833
 N   -3.026565   -0.517996    0.000574
 C   -1.019868    1.383186   -0.488153
 C   -1.066268    0.680957    0.870079
 C   -2.429713    0.069843    1.199422
 C   -3.372800    1.073814    1.842864
 C   -4.363840   -1.528684   -1.408161
 C   -4.163226   -1.295350   -0.072305
 N   -3.381614   -0.924398   -2.163519
 O   -1.953617    2.444403   -0.429811
 O   -1.537956    1.191770   -2.798016
 O   -0.125914   -0.402408    0.955453
 C   -1.360795    0.419257   -1.619373
 O   -4.429998    0.327131    2.437098
 H    1.388798    0.912570    1.425010
 H    1.787941   -1.141069    2.658401
 H    3.776845    0.041220    1.950260
 H    3.627916   -1.573812   -0.623227
 H    3.148558    1.406394   -0.129525
 H    2.884870   -0.288847   -2.656406
 H    4.151368    0.915968   -2.340876
 H    0.846546   -2.549803    0.980688
 H    3.879217   -2.728994    1.697622
 H    5.708488   -0.839294    0.291840
 H    1.401654    1.417282   -2.678944
 H   -0.015902    1.780628   -0.658486
 H   -0.818512    1.415480    1.643076
 H   -2.276190   -0.735450    1.920183
 H   -3.745190    1.771036    1.097097
 H   -2.831011    1.629304    2.615887
 H   -5.152232   -2.100107   -1.865590
 H   -4.699616   -1.587702    0.811125
 H   -2.157163    2.661196   -1.344745
 H   -2.186047    0.724907   -3.334855
 H   -0.545629   -0.300418   -1.758286
 H   -5.158161    0.920472    2.622753
