47 
4cd8_ligand_dft.xyz
 C    2.433098    0.799881    0.963933
 N    2.858658   -0.445929    0.627996
 C    1.081030    0.894998   -1.100949
 C    1.075788   -0.639821   -1.056894
 C    2.386364   -1.227478   -0.511558
 C    3.479007   -1.360679   -1.573349
 C    4.071756    0.372869    2.254395
 C    3.921411   -0.730689    1.461254
 N    3.133214    1.327597    1.939026
 O    2.152421    1.290574   -1.926249
 O    1.467616    2.851480    0.183473
 C    1.262138    1.454124    0.308444
 O    4.441480   -2.272516   -1.076276
 C   -1.266278   -0.831560   -0.578763
 C   -2.185887   -1.880038    0.049444
 C   -3.642912   -1.452478   -0.116947
 C   -3.859559    0.000635    0.321105
 C   -2.863845    0.907149   -0.395372
 C   -2.916093    2.365187    0.035757
 O    0.039238   -1.148433   -0.218959
 O   -1.954735   -1.995034    1.436297
 O   -4.517014   -2.311319    0.583914
 O   -5.168845    0.412144    0.009309
 O   -1.555440    0.448731   -0.086203
 O   -1.973341    3.151135   -0.655737
 H    0.130715    1.262247   -1.506071
 H    0.925946   -1.019993   -2.076713
 H    2.154971   -2.238655   -0.159467
 H    3.030868   -1.741839   -2.502528
 H    3.903478   -0.373492   -1.775942
 H    4.798642    0.533656    3.037909
 H    4.456845   -1.662587    1.385074
 H    2.331237    2.210882   -1.675952
 H    2.030935    3.108395    0.930967
 H    0.354485    1.256043    0.888309
 H    5.288323   -2.073135   -1.488305
 H   -1.382797   -0.842848   -1.679231
 H   -2.020766   -2.844428   -0.453904
 H   -3.921829   -1.526689   -1.175302
 H   -3.665282    0.069815    1.403342
 H   -3.029451    0.855670   -1.483989
 H   -3.906448    2.763674   -0.195284
 H   -2.772973    2.419151    1.125390
 H   -0.997982   -2.021606    1.572401
 H   -4.108073   -2.456530    1.450401
 H   -5.749897   -0.297531    0.317970
 H   -1.101188    3.001429   -0.267779
