29 
4ci1_ligand_xtb.xyz
 O   -1.125698    1.733978   -1.537496
 C   -1.853525    1.000837   -0.921055
 N   -3.161295    1.331820   -0.662850
 C   -4.128454    0.616714    0.021822
 O   -5.239458    1.060766    0.143463
 C   -3.679345   -0.722266    0.552512
 C   -2.190937   -0.734291    0.871326
 C   -1.413247   -0.361558   -0.388982
 N    0.014084   -0.324898   -0.177030
 C    4.441981    0.623726    0.602554
 C    3.174290    1.034703    1.004044
 C    2.087392    0.401291    0.439134
 C    2.253171   -0.619465   -0.502886
 O    0.057828    1.376794    1.371142
 O    0.591173   -1.930344   -1.714750
 C    3.509218   -1.028394   -0.899428
 C    4.606237   -0.388175   -0.330503
 C    0.911474   -1.082506   -0.922981
 C    0.635925    0.609009    0.646486
 H   -3.455740    2.242072   -1.007785
 H   -4.278445   -0.956435    1.433109
 H   -3.908722   -1.471421   -0.211803
 H   -1.883176   -1.723119    1.215548
 H   -1.966460   -0.009910    1.656774
 H   -1.582237   -1.106706   -1.180878
 H    5.312699    1.103224    1.023977
 H    3.038840    1.822873    1.727859
 H    3.629601   -1.815071   -1.627593
 H    5.602626   -0.683547   -0.623129
