32 
4ci2_ligand_xtb.xyz
 C   -1.724896    0.200499   -0.093929
 C   -2.249545   -0.244843   -1.464662
 C   -3.771364   -0.238236   -1.431380
 C   -4.316566   -1.094627   -0.316243
 N   -3.469648   -1.266533    0.764852
 C   -2.204546   -0.761790    0.977331
 C    1.702603    1.441301    0.065947
 C    1.962749    0.074407    0.041985
 C    0.669592   -0.679001   -0.032539
 N   -0.303056    0.388523   -0.057134
 C    0.243629    1.641761    0.016521
 C    4.021718    1.903436    0.170578
 C    4.290218    0.545515    0.155109
 C    3.267045   -0.406304    0.093921
 C    2.720453    2.377693    0.130872
 O   -0.405608    2.666880    0.023634
 N    3.546106   -1.755920    0.011955
 O   -1.566333   -1.090686    1.945477
 O   -5.402963   -1.612046   -0.321927
 H   -2.141817    1.195552    0.137269
 H   -1.883499    0.440882   -2.229670
 H   -1.882135   -1.247320   -1.697421
 H   -4.135822    0.780538   -1.268035
 H   -4.198978   -0.591426   -2.370800
 H   -3.823549   -1.875510    1.498509
 H    0.603489   -1.295365   -0.938352
 H    0.512687   -1.321158    0.842838
 H    4.845351    2.599794    0.220968
 H    5.314216    0.201846    0.192743
 H    2.494959    3.431200    0.150684
 H    4.469578   -2.029370    0.308351
 H    2.815531   -2.379794    0.314149
