26 
4civ_ligand_aiqm1.xyz
 O    2.281309   -1.628152    0.365296
 C    1.048209   -1.137748   -0.136146
 C   -0.026318   -1.375469    0.915640
 O   -0.160257   -2.758180    1.183048
 C   -1.352552   -0.855133    0.397036
 C   -1.279559    0.665337    0.203889
 C   -2.479823    1.064522   -0.659885
 O   -2.451647    1.225990   -1.847928
 O   -3.610327    1.152296    0.070389
 O   -1.301734    1.356135    1.440570
 C   -0.002493    1.099649   -0.464250
 C    1.069910    0.308090   -0.583127
 C    2.352351    0.818198   -1.189632
 O    3.383973    0.921676   -0.201658
 H    2.913008   -0.906666    0.446633
 H    0.801984   -1.749254   -1.011506
 H    0.251622   -0.833723    1.828935
 H    0.721487   -3.093593    1.369570
 H   -1.581509   -1.350440   -0.553279
 H   -2.154188   -1.097373    1.097120
 H   -4.324925    1.356921   -0.544174
 H   -2.147687    1.194032    1.870054
 H    0.017378    2.124325   -0.820225
 H    2.185679    1.784350   -1.670932
 H    2.732299    0.117077   -1.930513
 H    3.113911    1.597036    0.424776
