26 
4civ_ligand_ani-2x.xyz
 O    2.271917   -1.457059    0.648999
 C    1.093932   -1.104808   -0.047699
 C   -0.057527   -1.369513    0.921835
 O   -0.134183   -2.754457    1.179424
 C   -1.366998   -0.887640    0.337453
 C   -1.292770    0.639249    0.160480
 C   -2.505879    1.191823   -0.595504
 O   -2.467941    1.907013   -1.562650
 O   -3.666165    0.823476   -0.011161
 O   -1.272497    1.287414    1.430453
 C   -0.032829    1.052538   -0.548227
 C    1.079027    0.311692   -0.578671
 C    2.352295    0.795517   -1.228919
 O    3.444300    0.834273   -0.304397
 H    2.983909   -0.863579    0.352543
 H    0.970085   -1.787350   -0.910169
 H    0.150946   -0.811285    1.847913
 H    0.747954   -3.008828    1.487150
 H   -1.557407   -1.371629   -0.628379
 H   -2.192323   -1.143014    1.008466
 H   -4.372278    1.262136   -0.515180
 H   -2.150957    1.165966    1.817470
 H   -0.064460    2.038721   -1.003567
 H    2.215847    1.780049   -1.697175
 H    2.664154    0.092948   -2.006369
 H    3.159945    1.376248    0.445581
