29 
4ciw_ligand_ani-2x.xyz
 O    0.347304   -2.268787    1.121416
 C    0.140347   -1.244107    0.174727
 C   -1.348907   -1.261753   -0.164937
 O   -1.665844   -2.513654   -0.729475
 C   -1.658903   -0.160793   -1.157114
 C   -1.347160    1.201199   -0.510896
 C   -1.420237    2.346159   -1.527047
 O   -0.559091    3.160365   -1.735766
 O   -2.615334    2.377001   -2.154964
 O   -2.301727    1.491435    0.508774
 C   -0.001885    1.213347    0.163464
 C    0.588510    0.117745    0.652333
 C    1.738520    0.175327    1.628838
 C    3.072703   -0.283536    1.051288
 O    2.997366   -1.679383    0.761046
 H    1.305828   -2.424599    1.124953
 H    0.686534   -1.481451   -0.757121
 H   -1.919373   -1.091663    0.762279
 H   -1.296568   -3.164731   -0.113862
 H   -2.714770   -0.198589   -1.442287
 H   -1.063550   -0.294299   -2.068813
 H   -2.595610    3.157973   -2.733522
 H   -3.143253    1.657031    0.061079
 H    0.426566    2.200881    0.309240
 H    1.861399    1.197472    2.006484
 H    1.492754   -0.457321    2.489329
 H    3.300373    0.286528    0.139620
 H    3.869041   -0.093236    1.783702
 H    3.825267   -1.964761    0.357231
