29 
4ciw_ligand_xtb.xyz
 O    0.394788   -2.332333    1.092905
 C    0.137317   -1.271535    0.202071
 C   -1.358863   -1.303919   -0.134535
 O   -1.713232   -2.531794   -0.719414
 C   -1.665030   -0.177210   -1.112208
 C   -1.423894    1.185093   -0.430750
 C   -1.246040    2.191787   -1.569507
 O   -0.210977    2.424645   -2.131042
 O   -2.406731    2.758053   -1.925550
 O   -2.497986    1.543552    0.409860
 C   -0.183394    1.173543    0.423551
 C    0.511846    0.090967    0.742915
 C    1.718061    0.171886    1.636973
 C    3.016297   -0.191224    0.908887
 O    3.089160   -1.597275    0.746815
 H    1.355414   -2.374990    1.208682
 H    0.699190   -1.438517   -0.734987
 H   -1.925219   -1.146967    0.796628
 H   -1.310551   -3.219572   -0.173592
 H   -2.703934   -0.251704   -1.436805
 H   -1.019585   -0.282272   -1.986034
 H   -2.270903    3.369018   -2.667012
 H   -3.265215    1.749263   -0.138616
 H    0.090694    2.141178    0.817435
 H    1.810719    1.186270    2.023487
 H    1.593764   -0.512031    2.479688
 H    3.042059    0.310991   -0.066798
 H    3.871874    0.154699    1.504877
 H    3.870669   -1.819800    0.232078
