39 
4cix_ligand_xtb.xyz
 C    3.827641    0.657732    0.321264
 C    5.099431    0.749265   -0.219010
 C    5.514668   -0.162523   -1.173536
 C    4.654340   -1.167874   -1.583807
 C    3.383745   -1.257610   -1.045342
 C    2.957535   -0.348498   -0.083769
 C    1.557327   -0.407674    0.453007
 C    0.605068    0.350605   -0.496174
 O    0.928474    1.731251   -0.562052
 C   -0.828188    0.227688   -0.036085
 C   -1.763397   -0.251331   -0.844207
 C   -3.223855   -0.377119   -0.497965
 C   -3.666088   -1.829489   -0.697406
 O   -4.949949   -1.914394   -1.067834
 O   -2.979437   -2.793503   -0.500288
 O   -3.920698    0.496141   -1.357054
 C   -3.496417   -0.055374    0.986152
 C   -2.629008    1.116269    1.427734
 O   -2.973955    1.490605    2.736944
 C   -1.151762    0.683778    1.363622
 O   -0.324703    1.717200    1.848893
 H    3.513681    1.364077    1.077777
 H    5.766509    1.533219    0.108199
 H    6.506658   -0.093046   -1.594173
 H    4.975618   -1.884122   -2.325575
 H    2.714288   -2.042941   -1.366002
 H    1.508772    0.053313    1.440187
 H    1.212584   -1.439945    0.521717
 H    0.691613   -0.086028   -1.503415
 H    1.878638    1.808430   -0.717881
 H   -1.519711   -0.550444   -1.852644
 H   -5.215430   -2.843329   -1.158792
 H   -4.862590    0.289471   -1.311345
 H   -4.548564    0.198852    1.121927
 H   -3.264567   -0.920243    1.610260
 H   -2.779730    1.963110    0.737993
 H   -2.213892    1.968100    3.097112
 H   -1.023638   -0.160350    2.060329
 H    0.039089    2.186328    1.081136
