39 
4cix_ligand_aiqm1.xyz
 C    3.872156    0.455823    0.565209
 C    5.177331    0.622964    0.100621
 C    5.600048   -0.039583   -1.046896
 C    4.713504   -0.871233   -1.724457
 C    3.409986   -1.032270   -1.261887
 C    2.970903   -0.371944   -0.108889
 C    1.543178   -0.492182    0.358180
 C    0.579567    0.219753   -0.594651
 O    0.928435    1.599953   -0.755231
 C   -0.847749    0.180558   -0.107259
 C   -1.802851   -0.382305   -0.854476
 C   -3.253390   -0.433749   -0.450697
 C   -3.774944   -1.868342   -0.592055
 O   -5.107207   -1.900132   -0.799365
 O   -3.107395   -2.857708   -0.467751
 O   -3.919031    0.438668   -1.342295
 C   -3.478723   -0.035302    1.016611
 C   -2.614941    1.159389    1.368893
 O   -2.916491    1.561923    2.692242
 C   -1.151420    0.754728    1.261212
 O   -0.340213    1.853537    1.643160
 H    3.548324    0.972783    1.462269
 H    5.855394    1.273307    0.637128
 H    6.609939    0.089560   -1.409927
 H    5.030651   -1.393802   -2.617019
 H    2.726746   -1.677655   -1.803121
 H    1.444743   -0.055850    1.354802
 H    1.252057   -1.541795    0.419498
 H    0.635124   -0.272496   -1.576871
 H    1.885795    1.638588   -0.844502
 H   -1.578208   -0.792533   -1.832280
 H   -5.364459   -2.829246   -0.822223
 H   -4.868106    0.362256   -1.201722
 H   -4.533849    0.197775    1.170511
 H   -3.222292   -0.866216    1.683736
 H   -2.810320    1.978312    0.665831
 H   -2.242616    2.200423    2.944316
 H   -0.972770   -0.032084    2.004523
 H    0.123193    2.185724    0.864732
