52 
4cj4_ligand_xtb.xyz
 C    0.441232    0.294841    2.017456
 C    1.049195   -0.699678    2.778336
 C    0.265484   -3.164172   -1.026403
 C    2.248048   -2.539523    0.147298
 C    0.405728   -4.420740   -0.459012
 C    2.291117   -3.826291    0.654333
 C    1.201316   -2.186894   -0.700295
 C   -1.319153   -1.189649    1.300363
 C   -0.704860    0.081136    1.265979
 C    0.447631   -1.933043    2.792660
 C   -0.727585   -2.168063    2.080469
 C    1.142562   -0.768170   -1.177293
 C   -2.520010   -1.561230    0.519200
 C   -0.144369   -4.050089    3.097804
 C    1.567008    4.124678   -1.342783
 C   -0.428616    5.520208   -1.921934
 C   -1.305587    1.237210    0.509027
 C   -0.775328    3.322249   -0.793217
 C   -0.320438    1.055934   -1.819352
 C    0.105666    4.094484   -1.783741
 C   -0.349824    1.876147   -0.520668
 N    1.382693   -4.746667    0.371230
 N   -0.075516   -0.344227   -1.567191
 O   -2.681011   -1.330454   -0.659223
 O    2.133125   -0.058091   -1.192464
 O   -3.415595   -2.224733    1.241046
 O    0.825373   -3.079575    3.432030
 O   -1.105688   -3.465522    2.239529
 H    0.888366    1.276374    2.013385
 H    1.951490   -0.512133    3.334883
 H   -0.547738   -2.967502   -1.707625
 H    2.995285   -1.802990    0.397141
 H   -0.304629   -5.209325   -0.671869
 H    3.078125   -4.138790    1.328114
 H   -0.642258   -4.404447    4.014176
 H    0.338072   -4.894513    2.581882
 H    1.650353    4.528965   -0.335884
 H    2.006349    3.131132   -1.356803
 H    2.145858    4.756945   -2.012293
 H   -1.468579    5.513581   -2.241027
 H    0.150446    6.075050   -2.656213
 H   -0.365225    6.044031   -0.970310
 H   -2.221803    0.931708    0.004864
 H   -1.571555    2.002993    1.243448
 H   -0.773325    3.866078    0.155310
 H   -1.802504    3.319618   -1.167973
 H    0.486160    1.421830   -2.458225
 H   -1.272705    1.141925   -2.345823
 H    0.044495    3.615140   -2.765402
 H    0.660229    1.870585   -0.107746
 H   -0.898120   -0.902573   -1.384087
 H   -4.159682   -2.513760    0.688190
