52 
4cjp_ligand_ani-2x.xyz
 C    3.862773    3.188210    1.855733
 C    3.004864    2.467995    1.033728
 C   -3.086211   -0.475987   -1.094238
 C   -4.143970    0.218312   -1.692118
 C    5.199410    2.808558    1.923965
 C    4.882384    1.110005    0.446394
 C    3.522855    1.391410    0.309212
 C   -2.453964    1.436501    0.256928
 C   -2.238507    0.092066   -0.141419
 C   -4.319558    1.522155   -1.303132
 C   -3.503058    2.115810   -0.354810
 C    2.745757    0.516318   -0.623280
 C   -1.599024    2.158619    1.253715
 C   -4.931204    3.648001   -1.105858
 C    1.506378   -4.391097    1.223645
 C   -0.226103   -4.507057   -0.584739
 C   -1.149075   -0.795918    0.442339
 C    0.881147   -2.287006    0.017921
 C    0.537271   -0.207620   -1.381983
 C    0.366373   -3.641570    0.529318
 C   -0.157892   -1.343148   -0.608533
 N    5.713166    1.788337    1.234326
 N    1.395721    0.616221   -0.559562
 O   -2.291473    3.028541    1.996245
 O    3.318263   -0.260863   -1.381916
 O   -0.398230    2.016541    1.402892
 O   -5.274066    2.410473   -1.718489
 O   -3.903499    3.404202   -0.152198
 H    3.498532    4.029426    2.438814
 H    1.959202    2.763272    0.965676
 H   -2.929510   -1.514065   -1.378023
 H   -4.792128   -0.246294   -2.427556
 H    5.895834    3.350276    2.561593
 H    5.303410    0.283341   -0.121786
 H   -4.562016    4.344106   -1.870050
 H   -5.809882    4.052208   -0.597097
 H    1.927733   -3.809264    2.051343
 H    1.161408   -5.349904    1.626467
 H    2.317679   -4.600091    0.514530
 H    0.524046   -4.705094   -1.361867
 H   -1.091799   -4.038704   -1.064841
 H   -0.554375   -5.474516   -0.188006
 H   -0.606604   -0.268787    1.229000
 H   -1.644803   -1.653081    0.921910
 H    1.675149   -2.481263   -0.720807
 H    1.367509   -1.765485    0.855427
 H   -0.220551    0.426983   -1.857199
 H    1.164903   -0.627408   -2.170789
 H   -0.415944   -3.465796    1.282422
 H   -0.726395   -1.904160   -1.363801
 H    0.948816    1.177758    0.156871
 H   -1.650742    3.448635    2.596883
