52 
4cjp_ligand_xtb.xyz
 C    3.935422    3.167641    1.721308
 C    3.089687    2.490667    0.858048
 C   -3.195951   -0.551180   -0.860569
 C   -4.263401    0.106950   -1.463370
 C    5.184282    2.626144    1.987522
 C    4.808450    0.854958    0.628177
 C    3.527458    1.295730    0.294490
 C   -2.419449    1.465825    0.224434
 C   -2.267975    0.087036   -0.050048
 C   -4.384568    1.450633   -1.212782
 C   -3.492431    2.114769   -0.370923
 C    2.726078    0.475240   -0.663237
 C   -1.537188    2.242525    1.119903
 C   -4.980576    3.584064   -1.110984
 C    1.354924   -4.307329    1.327613
 C    0.166377   -4.457802   -0.863589
 C   -1.150652   -0.733859    0.527987
 C    0.852579   -2.208410    0.063240
 C    0.468596   -0.156612   -1.345455
 C    0.355851   -3.619703    0.398763
 C   -0.207066   -1.289605   -0.556880
 N    5.613524    1.494820    1.453698
 N    1.390190    0.609767   -0.546893
 O   -2.199919    3.188479    1.781621
 O    3.257945   -0.255517   -1.481455
 O   -0.345584    2.082944    1.272004
 O   -5.316867    2.337190   -1.677608
 O   -3.832690    3.430427   -0.301996
 H    3.634141    4.099978    2.174351
 H    2.117117    2.897236    0.622129
 H   -3.086987   -1.610834   -1.031249
 H   -4.964009   -0.408863   -2.097621
 H    5.878416    3.120754    2.654820
 H    5.186146   -0.063182    0.198468
 H   -4.772225    4.311997   -1.911072
 H   -5.817244    3.949803   -0.494978
 H    1.458058   -3.756561    2.259938
 H    1.028908   -5.318388    1.561636
 H    2.331809   -4.362352    0.852761
 H    1.110556   -4.552786   -1.394892
 H   -0.559483   -4.007028   -1.535825
 H   -0.185110   -5.454998   -0.607501
 H   -0.572126   -0.152209    1.241770
 H   -1.588177   -1.580186    1.062755
 H    1.692391   -2.294036   -0.628692
 H    1.231934   -1.738062    0.973369
 H   -0.295541    0.513915   -1.753817
 H    1.046765   -0.583977   -2.168895
 H   -0.605793   -3.550985    0.920131
 H   -0.800753   -1.857731   -1.277589
 H    0.988300    1.167691    0.193514
 H   -1.594135    3.705111    2.336669
