32 
4ckj_ligand_xtb.xyz
 O   -2.053678    1.206641    1.164104
 C   -3.032793    1.407647    0.168058
 C   -2.832049    0.394850   -0.964403
 O   -1.639187    0.674482   -1.690185
 C   -2.704647   -1.051033   -0.464301
 O   -3.202155   -1.941319   -1.421381
 C   -1.187062   -1.200932   -0.285183
 O   -0.779437   -2.519559   -0.480468
 C   -0.631174   -0.227291   -1.354634
 N    0.538486    0.449354   -0.844582
 C    0.839970    1.779906   -0.812627
 N    1.990214    2.046331   -0.272478
 C    2.504419    0.825233    0.085841
 C    3.695770    0.402749    0.701955
 N    4.654221    1.253830    1.099986
 N    3.874750   -0.906797    0.906090
 C    2.935939   -1.755846    0.530678
 N    1.779370   -1.495027   -0.054435
 C    1.596027   -0.186172   -0.266403
 H   -2.135911    1.900433    1.827279
 H   -4.041578    1.276532    0.582674
 H   -2.949672    2.414549   -0.260029
 H   -3.664078    0.478832   -1.670082
 H   -3.230992   -1.186287    0.489948
 H   -2.625330   -2.719481   -1.403024
 H   -0.903660   -0.830793    0.708616
 H    0.191084   -2.531878   -0.348281
 H   -0.332651   -0.794787   -2.253931
 H    0.166925    2.512364   -1.209639
 H    5.495371    0.887907    1.507774
 H    4.543427    2.235178    0.922424
 H    3.139881   -2.799713    0.728341
