80 
4cl9_ligand_xtb.xyz
 C   -4.510181   -3.302475   -2.232659
 C   -5.158084   -2.718468   -0.985678
 C   -6.626901   -3.109793   -0.861556
 O   -5.038487   -1.290325   -1.078915
 C   -5.046617   -0.609067    0.085637
 O   -5.110339   -1.109731    1.181789
 N   -4.984781    0.719576   -0.159906
 C   -4.853711    1.700253    0.902819
 C   -5.915182    2.795730    0.778554
 C   -5.410657    4.014780   -0.002211
 C   -5.054665    3.711831   -1.458916
 N   -4.251300    4.553163    0.692623
 C   -4.213080    5.775986    1.308012
 C   -5.368423    6.718455    1.030449
 O   -3.303321    6.107134    2.037256
 C   -3.189236    3.634050    0.841126
 C   -1.864832    4.067697    0.842953
 C   -0.827066    3.168684    0.964004
 C   -1.074576    1.801919    1.082410
 C   -2.396480    1.374855    1.062090
 C   -3.452062    2.265565    0.938895
 C    0.023619    0.838238    1.226601
 C    1.212270    0.989701    0.516513
 C    2.249968    0.088002    0.648008
 C    2.120697   -0.995580    1.510413
 N    3.131326   -1.946956    1.706823
 C    4.340326   -2.060046    1.099676
 O    4.736497   -1.311851    0.227538
 C    5.145731   -3.236658    1.634154
 C    6.498782   -3.376919    0.938655
 C    6.349765   -3.824266   -0.515198
 C    7.655408   -3.676464   -1.301217
 C    7.435763   -3.410813   -2.791488
 C    6.764808   -2.058536   -3.075226
 C    7.560422   -0.931013   -2.457725
 O    8.592500   -0.467276   -2.924683
 N    7.065603   -0.456321   -1.307821
 O    7.786812    0.564437   -0.673243
 C    0.936582   -1.154865    2.228056
 C   -0.096980   -0.253877    2.084683
 H   -3.473812   -2.982981   -2.304168
 H   -4.544863   -4.387091   -2.190973
 H   -5.040754   -2.962679   -3.118367
 H   -4.620195   -3.041347   -0.084728
 H   -7.183822   -2.748102   -1.723081
 H   -7.048560   -2.675837    0.041763
 H   -6.717496   -4.190770   -0.806395
 H   -4.844227    1.006508   -1.114607
 H   -5.027259    1.125895    1.821617
 H   -6.191932    3.132309    1.779623
 H   -6.805941    2.386302    0.301030
 H   -6.206311    4.760368    0.002152
 H   -4.830388    4.638598   -1.983187
 H   -5.891441    3.228300   -1.956324
 H   -4.177121    3.073679   -1.521586
 H   -5.116787    7.676023    1.479177
 H   -5.522397    6.856579   -0.036940
 H   -6.286850    6.357232    1.488614
 H   -1.652384    5.119975    0.758509
 H    0.188503    3.533250    0.984832
 H   -2.622429    0.320797    1.132352
 H    1.322769    1.818409   -0.166462
 H    3.158943    0.222357    0.087155
 H    2.909049   -2.643011    2.406246
 H    4.559035   -4.150078    1.502990
 H    5.293937   -3.081966    2.706308
 H    7.116535   -4.090746    1.486769
 H    7.001037   -2.408255    0.967522
 H    6.010152   -4.862151   -0.549241
 H    5.577040   -3.214270   -0.979232
 H    8.256557   -4.581026   -1.188182
 H    8.237360   -2.851707   -0.886954
 H    8.405950   -3.420170   -3.291569
 H    6.824337   -4.206226   -3.223560
 H    5.743672   -2.038190   -2.696543
 H    6.740825   -1.900203   -4.154373
 H    6.241366   -0.745417   -0.792490
 H    8.528224    0.712625   -1.299272
 H    0.830300   -1.990893    2.906181
 H   -1.000439   -0.385245    2.660596
