24 
4cr9_ligand_xtb.xyz
 C   49.610161   23.141983   11.925026
 C   49.882104   21.665870   11.874960
 C   48.816240   20.809803   11.821726
 C   49.024156   19.410150   11.773241
 N   50.221077   18.871882   11.776955
 C   51.291053   19.688137   11.828896
 C   51.194271   21.108800   11.880080
 C   52.380201   21.859811   11.931726
 C   53.620212   21.254665   11.933866
 C   53.700497   19.847520   11.882952
 C   52.567851   19.090284   11.832065
 N   54.771909   21.997323   11.984630
 N   47.960659   18.561928   11.719956
 H   49.043752   23.443392   11.044381
 H   49.010067   23.377526   12.803442
 H   50.518381   23.732096   11.964521
 H   47.804876   21.192392   11.816169
 H   52.341125   22.938630   11.971196
 H   54.675782   19.380524   11.884992
 H   52.616309   18.013333   11.792806
 H   54.730449   22.997047   12.020652
 H   55.665230   21.545604   11.985138
 H   47.020670   18.906464   11.714824
 H   48.138366   17.576334   11.687000
