24 
4cr9_ligand_aiqm1.xyz
 C   49.623325   23.140949   11.925160
 C   49.878425   21.658480   11.874560
 C   48.809674   20.806425   11.821252
 C   49.018511   19.394447   11.772418
 N   50.208494   18.840070   11.775385
 C   51.286650   19.677524   11.828309
 C   51.193814   21.090397   11.879483
 C   52.381431   21.863088   11.932184
 C   53.625884   21.267368   11.934685
 C   53.709718   19.850650   11.883195
 C   52.573366   19.087471   11.831868
 N   54.785515   22.016712   11.986110
 N   47.936170   18.557007   11.719041
 H   49.055985   23.452839   11.046095
 H   49.022238   23.387105   12.802667
 H   50.530813   23.737023   11.964896
 H   47.792548   21.191240   11.815338
 H   52.327937   22.944050   11.971700
 H   54.685822   19.376054   11.884920
 H   52.628690   18.007259   11.792442
 H   54.749037   23.015336   12.021666
 H   55.679794   21.570968   11.986027
 H   47.001265   18.909797   11.715200
 H   48.100295   17.569242   11.686601
