18 
4ctj_ligand_xtb.xyz
 C   50.831138   49.230972   13.444144
 O   49.721200   49.488248   13.821226
 C   52.006138   49.171508   14.361452
 O   51.072326   48.996438   12.140078
 C   53.151671   48.414252   14.062553
 O   55.058634   49.199851   17.077785
 C   54.226236   48.361115   14.924991
 C   54.137959   49.095222   16.098725
 C   54.524082   50.010374   18.022589
 C   53.284444   50.441107   17.695224
 C   52.992121   49.854973   16.424358
 C   51.914602   49.883101   15.548673
 H   52.011244   48.860540   11.957246
 H   53.192919   47.819836   13.159590
 H   55.100923   47.771156   14.703869
 H   55.134835   50.201028   18.883844
 H   52.650699   51.085843   18.267579
 H   51.018728   50.443135   15.765577
