18 
4ctj_ligand_ani-2x.xyz
 C   50.825003   49.204557   13.435117
 O   49.700216   49.408367   13.809903
 C   52.007738   49.170852   14.355574
 O   51.070955   48.989380   12.122721
 C   53.147820   48.397405   14.065627
 O   55.054124   49.188968   17.080852
 C   54.225685   48.338809   14.935720
 C   54.115721   49.093852   16.100986
 C   54.528111   50.020248   18.031919
 C   53.296831   50.460666   17.706575
 C   52.993410   49.862530   16.424949
 C   51.912743   49.890217   15.540477
 H   52.022504   48.996037   11.952049
 H   53.179614   47.793169   13.159058
 H   55.110379   47.748762   14.721934
 H   55.167142   50.195062   18.885905
 H   52.669167   51.124004   18.286452
 H   51.002736   50.445815   15.743681
