42 
4cwn_ligand_dft.xyz
 N   -1.023021    4.359264    0.493014
 C   -1.298265    3.046564    0.218999
 N   -0.547455    2.321956   -0.601294
 N   -1.223154    1.135951   -0.600694
 C   -2.321371    1.223387    0.210168
 N   -2.393822    2.426868    0.746056
 C   -0.876646   -0.002915   -1.292227
 N   -1.603347   -1.069695   -1.221283
 C   -2.737767   -1.064039   -0.427660
 C   -3.515921   -2.235259   -0.361796
 C   -4.649901   -2.272324    0.421759
 C   -5.047872   -1.145690    1.164885
 C   -4.304179    0.013736    1.116317
 C   -3.147465    0.061114    0.321200
 C    0.405551    0.029725   -2.070351
 C    1.590304   -0.220868   -1.152641
 C    2.483177    0.793519   -0.862290
 C    3.561911    0.541248   -0.002269
 O    4.386025    1.596090    0.223174
 C    5.486220    1.402108    1.081924
 C    3.733323   -0.715622    0.560983
 C    2.813515   -1.731557    0.265153
 C    1.743478   -1.495326   -0.588616
 O    3.063394   -2.920745    0.871031
 C    2.162363   -3.979470    0.636402
 H   -0.063709    4.635209    0.344816
 H   -1.430246    4.696514    1.352184
 H   -3.194696   -3.093890   -0.941960
 H   -5.243850   -3.180276    0.466156
 H   -5.943576   -1.191157    1.776218
 H   -4.590188    0.897192    1.677778
 H    0.510531    0.997244   -2.566973
 H    0.338953   -0.755671   -2.827142
 H    2.354293    1.789952   -1.269311
 H    5.163509    1.119797    2.092445
 H    6.168753    0.634484    0.694963
 H    6.007949    2.359101    1.124421
 H    4.550800   -0.952658    1.230326
 H    1.014371   -2.263500   -0.819901
 H    1.148063   -3.725874    0.969867
 H    2.133122   -4.255109   -0.425558
 H    2.533422   -4.824511    1.217809
