42 
4cwn_ligand_ani-2x.xyz
 N   -1.601607   12.759963   25.242591
 C   -0.670448   11.761665   25.412323
 N    0.342455   11.609311   24.568863
 N    1.007510   10.555158   25.127989
 C    0.348407   10.146565   26.251202
 N   -0.717601   10.896962   26.456404
 C    2.165196    9.954058   24.659866
 N    2.696486    8.949211   25.261418
 C    2.080451    8.463813   26.409870
 C    2.663324    7.358208   27.061981
 C    2.092935    6.849944   28.205248
 C    0.922861    7.421672   28.743151
 C    0.338786    8.502747   28.118407
 C    0.908765    9.029073   26.953000
 C    2.781015   10.586105   23.450102
 C    3.691222   11.736198   23.842133
 C    3.244999   13.046866   23.777480
 C    4.094018   14.091748   24.163348
 O    3.582748   15.343705   24.059524
 C    4.413283   16.421663   24.433040
 C    5.375566   13.821272   24.621432
 C    5.807275   12.492379   24.704247
 C    4.969930   11.448547   24.325968
 O    7.072027   12.320195   25.171242
 C    7.553113   10.997868   25.263531
 H   -1.694733   13.077176   24.289032
 H   -2.482441   12.587898   25.704383
 H    3.565668    6.933575   26.631992
 H    2.548482    5.996930   28.702809
 H    0.486747    7.007286   29.647324
 H   -0.565311    8.965393   28.509500
 H    1.994231   10.930694   22.775823
 H    3.353800    9.803368   22.947083
 H    2.233886   13.277016   23.454880
 H    4.701726   16.359699   25.490246
 H    5.318116   16.465871   23.813314
 H    3.822657   17.324959   24.273219
 H    6.065142   14.600867   24.927245
 H    5.285457   10.412012   24.408630
 H    6.947050   10.399101   25.956160
 H    7.565763   10.507835   24.281365
 H    8.572447   11.072125   25.645235
