36 
4cwo_ligand_aiqm1.xyz
 N    6.983717    8.660154   23.689494
 C    6.241688    9.777854   23.979031
 N    4.916169    9.787164   23.869788
 N    6.823399   10.918350   24.450471
 C    5.773900   11.698941   24.663737
 C    5.649351   13.033317   25.158727
 C    6.750189   13.814866   25.545964
 C    6.546010   15.095298   26.016068
 C    5.240481   15.610277   26.105589
 C    4.151031   14.846152   25.726838
 C    4.338543   13.541272   25.245831
 N    3.213259   12.809623   24.879962
 N    4.626599   11.045222   24.323895
 C    3.363017   11.610235   24.439242
 C    2.226201   10.707955   24.024351
 C    0.868878   11.361695   24.055549
 C    0.322765   11.871656   22.879894
 C    0.159482   11.440644   25.252307
 C   -1.093464   12.044639   25.264020
 O   -1.740264   12.096802   26.465341
 C   -1.654275   12.562015   24.099119
 C   -0.932693   12.470954   22.911808
 O   -1.415009   12.954021   21.729591
 H    6.549465    8.037676   23.028705
 H    7.946054    8.862086   23.477906
 H    7.742747   13.393048   25.468843
 H    7.388745   15.702600   26.316767
 H    5.085292   16.615238   26.475904
 H    3.139288   15.222791   25.789647
 H    2.253201    9.835277   24.682661
 H    2.453543   10.334045   23.023243
 H    0.860256   11.824843   21.942423
 H    0.571740   11.065461   26.179056
 H   -2.583526   12.539962   26.353370
 H   -2.633982   13.032258   24.117233
 H   -2.276694   13.349013   21.875822
