37 
4cwp_ligand_aiqm1.xyz
 N   -1.762222   12.539961   24.461668
 C   -0.777229   11.684563   24.887248
 N    0.355082   11.529193   24.209003
 N    0.972769   10.559145   24.951495
 C    0.187964   10.203107   26.007785
 N   -0.934148   10.908130   25.999037
 C    2.219377   10.004242   24.704076
 N    2.698132    9.088089   25.471771
 C    1.951354    8.660144   26.563893
 C    2.490217    7.658869   27.386274
 C    1.785044    7.209505   28.488557
 C    0.523154    7.745152   28.801900
 C   -0.023459    8.729770   28.005744
 C    0.686095    9.191411   26.884896
 C    2.990104   10.543006   23.526651
 C    3.745822   11.801650   23.898854
 C    5.006985   11.702075   24.483814
 C    5.740471   12.838533   24.860957
 C    5.147478   14.059184   24.634508
 C    3.891201   14.166403   24.055683
 C    3.163503   13.063298   23.671292
 O    5.650339   15.314802   24.869442
 C    4.517097   16.169025   24.737697
 O    3.570228   15.495032   23.912936
 H   -1.428155   13.305050   23.899621
 H   -2.387842   12.824554   25.195856
 H    3.462424    7.259591   27.130825
 H    2.210121    6.436989   29.115996
 H   -0.017999    7.384407   29.665772
 H   -0.992492    9.157850   28.221655
 H    2.290910   10.745998   22.713765
 H    3.691646    9.764461   23.229116
 H    5.431608   10.723436   24.663328
 H    6.720858   12.758588   25.305552
 H    2.179026   13.151398   23.233755
 H    4.815760   17.098640   24.263050
 H    4.076375   16.333550   25.727230
