37 
4cwp_ligand_xtb.xyz
 N   -1.657183   12.646011   24.568380
 C   -0.693032   11.773429   24.940045
 N    0.416855   11.572009   24.242310
 N    1.033954   10.591720   24.924983
 C    0.262452   10.242294   26.014200
 N   -0.825021   10.983671   26.035172
 C    2.223750    9.990118   24.651932
 N    2.684824    9.051238   25.400850
 C    1.982749    8.638419   26.497162
 C    2.510236    7.610061   27.290428
 C    1.826238    7.176660   28.399617
 C    0.600980    7.748694   28.754954
 C    0.059589    8.757777   27.996897
 C    0.741644    9.212096   26.863220
 C    3.001905   10.503897   23.481716
 C    3.710401   11.763669   23.918556
 C    4.897898   11.673035   24.628380
 C    5.568155   12.804605   25.085626
 C    4.996208   14.022523   24.809823
 C    3.794480   14.118897   24.107383
 C    3.131530   13.006836   23.651461
 O    5.435161   15.280188   25.136070
 C    4.474520   16.171416   24.613493
 O    3.448299   15.439957   23.978875
 H   -1.384817   13.363604   23.919085
 H   -2.317335   12.895133   25.284710
 H    3.455949    7.178580   27.003534
 H    2.236326    6.383714   29.007701
 H    0.080444    7.391391   29.630819
 H   -0.884558    9.215764   28.247091
 H    2.314006   10.725200   22.665939
 H    3.721023    9.742564   23.183632
 H    5.310021   10.697706   24.835667
 H    6.492898   12.733504   25.632719
 H    2.196347   13.085200   23.123590
 H    4.954098   16.843735   23.883276
 H    4.046608   16.773485   25.431406
