46 
4cws_ligand_dft.xyz
 O    7.154736   -2.133125   -1.261026
 C    6.859820   -2.219565    0.122533
 C    5.414440   -1.796189    0.303555
 N    5.245212   -0.458001   -0.216243
 C    4.015541    0.169245   -0.207504
 C    3.852601    1.349164   -0.983998
 C    2.666231    2.034907   -0.984279
 C    2.946910   -0.289247    0.555008
 C    1.727330    0.406427    0.568941
 C    1.585816    1.577025   -0.207417
 N    0.700112   -0.100179    1.347972
 C   -0.436795    0.515367    1.372841
 N   -0.637537    1.666430    0.649698
 N   -1.784603    2.412989    0.601663
 C    0.322372    2.231632   -0.146936
 N   -0.152097    3.324837   -0.718820
 C   -1.422607    3.382846   -0.228244
 N   -2.259270    4.420362   -0.547732
 C   -1.604437   -0.028749    2.145703
 C   -2.516850   -0.842733    1.244438
 C   -3.686854   -0.265043    0.720703
 C   -4.450807   -1.047759   -0.113088
 O   -5.637225   -0.735098   -0.721572
 C   -5.887097   -1.806757   -1.620779
 O   -5.052972   -2.896227   -1.249604
 C   -4.097984   -2.352087   -0.433881
 C   -2.955643   -2.936247    0.063905
 C   -2.164382   -2.149576    0.912831
 H    8.101396   -2.263987   -1.380963
 H    7.507747   -1.550605    0.707065
 H    6.987653   -3.244741    0.498013
 H    5.179725   -1.812516    1.374245
 H    4.750818   -2.520404   -0.195856
 H    5.798255   -0.301875   -1.049147
 H    4.690117    1.708192   -1.576274
 H    2.542030    2.935869   -1.576352
 H    3.012994   -1.189374    1.154357
 H   -3.242725    4.228351   -0.428635
 H   -2.024866    4.884324   -1.412444
 H   -2.157943    0.796209    2.601702
 H   -1.193033   -0.658903    2.937248
 H   -3.954311    0.760207    0.947672
 H   -5.641098   -1.490424   -2.644737
 H   -6.933579   -2.108678   -1.544278
 H   -2.684747   -3.954797   -0.189154
 H   -1.243085   -2.562280    1.313386
