46 
4cws_ligand_xtb.xyz
 O    4.403869    6.013539   31.971726
 C    4.680938    5.489735   30.689171
 C    4.463115    6.599006   29.664163
 N    3.085428    7.019986   29.718922
 C    2.550328    7.961560   28.882989
 C    1.273325    8.484183   29.193613
 C    0.650729    9.376027   28.366764
 C    3.179358    8.375172   27.716831
 C    2.558999    9.283691   26.858191
 C    1.277648    9.791579   27.184331
 N    3.221939    9.660211   25.722048
 C    2.681170   10.494687   24.905469
 N    1.450576   11.021348   25.139274
 N    0.752501   11.892177   24.383796
 C    0.714197   10.703791   26.263801
 N   -0.429739   11.358654   26.234747
 C   -0.364418   12.060790   25.076927
 N   -1.399587   12.821953   24.643989
 C    3.409906   10.966853   23.684928
 C    4.019012   12.310713   24.000873
 C    3.339678   13.476706   23.639313
 C    3.915258   14.672891   23.988485
 O    3.462869   15.947174   23.753551
 C    4.431107   16.809013   24.309789
 O    5.467570   16.045853   24.886861
 C    5.127489   14.732968   24.676058
 C    5.798379   13.592587   25.044541
 C    5.217042   12.376419   24.695843
 H    4.573181    5.337740   32.634983
 H    4.008141    4.650061   30.465622
 H    5.718895    5.137611   30.627141
 H    4.688292    6.210113   28.667552
 H    5.149871    7.429081   29.885668
 H    2.703694    6.997237   30.653867
 H    0.792576    8.161999   30.106263
 H   -0.323092    9.776928   28.600374
 H    4.155762    8.015464   27.440274
 H   -1.176824   13.512471   23.947495
 H   -2.060686   13.087184   25.354198
 H    2.700666   11.061393   22.862879
 H    4.184829   10.240908   23.443663
 H    2.394978   13.434198   23.124447
 H    3.962904   17.439484   25.083349
 H    4.846115   17.456407   23.519805
 H    6.731042   13.642622   25.580600
 H    5.707472   11.458031   24.978926
