46 
4cws_ligand_aiqm1.xyz
 O    4.463917    6.318816   31.969990
 C    4.792589    5.676094   30.738871
 C    4.428962    6.631630   29.626510
 N    3.014252    6.937663   29.698859
 C    2.457191    7.887157   28.863044
 C    1.157823    8.375457   29.156992
 C    0.541410    9.269990   28.317999
 C    3.108992    8.336460   27.715922
 C    2.488550    9.245467   26.851503
 C    1.193789    9.715957   27.155184
 N    3.191533    9.657611   25.725331
 C    2.641687   10.494610   24.913513
 N    1.366812   10.979718   25.145356
 N    0.676248   11.863646   24.356664
 C    0.619301   10.635473   26.234318
 N   -0.547874   11.265616   26.201212
 C   -0.454738   11.982979   25.043907
 N   -1.499740   12.746986   24.585736
 C    3.361993   11.011103   23.694716
 C    4.038852   12.335336   23.980831
 C    3.372331   13.541448   23.691690
 C    4.031445   14.709670   24.000090
 O    3.622644   16.004672   23.787388
 C    4.533017   16.783947   24.558282
 O    5.722249   16.014812   24.717301
 C    5.299528   14.717536   24.562639
 C    5.973954   13.552945   24.848529
 C    5.311389   12.351633   24.549221
 H    4.610736    5.701237   32.686572
 H    4.229484    4.746011   30.625654
 H    5.862027    5.453664   30.693199
 H    4.651706    6.148813   28.672170
 H    5.053769    7.531189   29.697754
 H    2.678263    6.980503   30.649606
 H    0.650984    8.029001   30.049622
 H   -0.450491    9.641607   28.535853
 H    4.103612    7.999585   27.461980
 H   -1.221019   13.500839   23.979907
 H   -2.130553   13.033310   25.314913
 H    2.641108   11.120853   22.882891
 H    4.109218   10.263277   23.431004
 H    2.377798   13.539802   23.268375
 H    4.095335   16.973616   25.544705
 H    4.762858   17.703672   24.028987
 H    6.962982   13.562514   25.281133
 H    5.800575   11.414275   24.778177
