49 
4d09_ligand_ani-2x.xyz
 O   37.080980  -25.156266   24.435055
 C   37.190687  -24.620794   25.529939
 N   37.909321  -23.470142   25.713394
 C   38.495668  -22.781801   24.572982
 C   37.569591  -21.757373   23.946935
 C   37.740208  -20.393026   24.180579
 C   36.865535  -19.462956   23.625975
 C   35.809630  -19.891197   22.828164
 C   35.631620  -21.251628   22.590927
 C   36.504580  -22.180077   23.148168
 C   36.546126  -25.195652   26.747081
 C   36.963669  -24.867928   28.048773
 C   35.522894  -26.112422   26.554372
 C   34.902797  -26.698320   27.653777
 N   33.896652  -27.682133   27.558692
 C   33.291382  -28.380445   26.534624
 C   33.772196  -28.586088   25.153553
 C   35.119607  -28.813527   24.862721
 C   35.532362  -29.029787   23.551932
 C   34.596628  -29.033600   22.521643
 C   33.248799  -28.835499   22.809468
 C   32.834314  -28.628386   24.119285
 N   32.211833  -28.968713   26.992971
 N   32.112654  -28.738623   28.327453
 C   33.132899  -27.987161   28.664911
 C   33.541108  -27.491348   29.971582
 C   32.758038  -27.928387   31.169623
 N   34.558678  -26.707191   30.101774
 C   35.243411  -26.291665   28.961981
 C   36.317883  -25.400567   29.136666
 H   37.689932  -22.904883   26.520573
 H   38.745124  -23.556987   23.843839
 H   39.428614  -22.309016   24.897798
 H   38.567832  -20.057056   24.802950
 H   37.011906  -18.402337   23.816217
 H   35.125717  -19.166833   22.391972
 H   34.808984  -21.591990   21.966975
 H   36.367398  -23.243736   22.967999
 H   37.813139  -24.204555   28.202348
 H   35.219669  -26.341572   25.540586
 H   35.847565  -28.793657   25.668947
 H   36.585193  -29.188094   23.339922
 H   34.915655  -29.197703   21.495890
 H   32.514003  -28.851031   22.008780
 H   31.781034  -28.502596   24.357367
 H   31.685481  -27.797916   30.993027
 H   32.919200  -28.993790   31.367240
 H   33.069669  -27.349520   32.041654
 H   36.588037  -25.135725   30.153816
