24 
4d1b_ligand_aiqm1.xyz
 N   -1.554864   -0.341280   -1.087148
 C   -2.872306   -0.431225   -1.437227
 O   -3.383420   -0.241629   -2.512477
 N   -3.542274   -0.784329   -0.254166
 C   -2.701773   -0.962448    0.817263
 O   -3.012793   -1.242075    1.947749
 C   -1.288102   -0.744740    0.277368
 C   -0.502619    0.277971    1.099292
 C    0.903360    0.426728    0.578365
 C    3.152185   -0.442939    0.322510
 C    1.261676    1.518038   -0.216527
 C    2.547387    1.626557   -0.743409
 C    3.496011    0.643692   -0.477628
 C    1.866783   -0.550328    0.843738
 H   -0.849887   -0.220962   -1.790512
 H   -4.540827   -0.884049   -0.215380
 H   -0.775557   -1.711321    0.314154
 H   -0.509032   -0.061682    2.135556
 H   -1.017212    1.240759    1.054253
 H    3.884344   -1.208666    0.542116
 H    0.528563    2.290128   -0.422194
 H    2.803942    2.479389   -1.357944
 H    4.494525    0.725236   -0.884537
 H    1.611789   -1.401025    1.466886
