24 
4d1b_ligand_ani-2x.xyz
 N   -1.627139   -0.113006   -1.081090
 C   -2.951458   -0.269220   -1.419765
 O   -3.488151   -0.023941   -2.473318
 N   -3.576364   -0.766478   -0.266464
 C   -2.701569   -0.997721    0.772777
 O   -2.978296   -1.368859    1.888449
 C   -1.307420   -0.706321    0.206425
 C   -0.469553    0.189988    1.123042
 C    0.936252    0.365521    0.600779
 C    3.245265   -0.360538    0.469895
 C    1.224209    1.370196   -0.326024
 C    2.506380    1.512264   -0.848076
 C    3.520755    0.645118   -0.451897
 C    1.962033   -0.497362    0.991663
 H   -0.947848   -0.075741   -1.822903
 H   -4.573479   -0.907599   -0.204496
 H   -0.795229   -1.670741    0.084374
 H   -0.467477   -0.263321    2.119490
 H   -0.969122    1.161202    1.201725
 H    4.032696   -1.040708    0.785893
 H    0.429993    2.045103   -0.642069
 H    2.713565    2.301753   -1.566110
 H    4.522757    0.753653   -0.859433
 H    1.759098   -1.283440    1.717233
