30 
4d1d_ligand_xtb.xyz
 N   -2.457439    0.757634    0.817336
 C   -2.494222   -0.663132    0.597519
 C   -1.611086   -1.110648   -0.583695
 C   -0.163586   -0.875085   -0.259931
 C    0.539453   -1.822602    0.510616
 C    1.842925   -1.613212    0.857934
 C    2.518742   -0.440415    0.459686
 C    1.817753    0.520793   -0.314168
 C    0.472386    0.272619   -0.656122
 C   -3.972893   -0.902572    0.292212
 N   -4.548523    0.333436    0.298270
 C   -3.642832    1.367557    0.585964
 O   -3.904763    2.537795    0.623122
 O   -4.514982   -1.950625    0.070095
 C    2.487826    1.695448   -0.715007
 C    3.792263    1.906890   -0.366403
 C    4.486012    0.955388    0.397804
 C    3.863795   -0.192546    0.802053
 H   -1.601241    1.266319    0.956216
 H   -2.198454   -1.213506    1.499240
 H   -1.804384   -2.169262   -0.762737
 H   -1.900298   -0.546567   -1.472505
 H    0.031449   -2.725709    0.817236
 H    2.377952   -2.346496    1.444109
 H   -0.051471    1.007919   -1.252269
 H   -5.524636    0.505604    0.111892
 H    1.950226    2.425130   -1.303752
 H    4.299804    2.808301   -0.676864
 H    5.516670    1.139480    0.663099
 H    4.393357   -0.928236    1.390453
