30 
4d1d_ligand_aiqm1.xyz
 N   -2.526250    0.767019    0.778336
 C   -2.511194   -0.651354    0.490771
 C   -1.596523   -1.052098   -0.668316
 C   -0.150120   -0.831722   -0.311288
 C    0.507391   -1.742917    0.561824
 C    1.804978   -1.538301    0.949218
 C    2.531617   -0.407865    0.494297
 C    1.890285    0.503644   -0.384065
 C    0.545224    0.261414   -0.771052
 C   -3.985219   -0.920915    0.187945
 N   -4.636865    0.265953    0.416356
 C   -3.778096    1.311532    0.795694
 O   -4.108966    2.440043    1.060946
 O   -4.474183   -1.963120   -0.169627
 C    2.608764    1.635281   -0.847473
 C    3.904770    1.848713   -0.452784
 C    4.544498    0.938430    0.423928
 C    3.872244   -0.164276    0.885517
 H   -1.735416    1.291981    1.102591
 H   -2.249863   -1.235291    1.378699
 H   -1.795032   -2.100062   -0.895660
 H   -1.855752   -0.457187   -1.547762
 H   -0.029054   -2.615525    0.918887
 H    2.292216   -2.244185    1.612205
 H    0.067923    0.963461   -1.448599
 H   -5.627596    0.397897    0.318447
 H    2.118433    2.330431   -1.519173
 H    4.444993    2.714909   -0.811049
 H    5.567429    1.117518    0.727153
 H    4.359163   -0.863710    1.555432
