47 
4d1y_ligand_xtb.xyz
 N   -0.278479    3.223108    0.455064
 C   -0.584802    4.374018    1.112508
 O    0.161864    5.318195    1.175729
 N   -1.843625    4.437044    1.740334
 C   -2.798890    3.456532    1.822211
 O   -3.846999    3.618064    2.398645
 C   -2.388048    2.203424    1.136094
 N   -3.163740    1.167547    1.167568
 C   -2.749276    0.031518    0.571550
 C   -3.551353   -1.116046    0.673548
 C   -3.167978   -2.310011    0.114189
 C   -4.037972   -3.520502    0.233007
 C   -1.927054   -2.384056   -0.561114
 C   -1.462624   -3.681890   -1.136057
 C   -1.132388   -1.262141   -0.688887
 C   -1.526394   -0.034934   -0.150916
 N   -0.785211    1.113431   -0.269404
 C   -1.116751    2.221127    0.449853
 C    0.376015    1.192098   -1.131775
 C    1.694020    0.929603   -0.374277
 O    2.308014    2.106845    0.056154
 C    2.662067    0.177648   -1.299857
 O    2.126035   -1.099421   -1.556803
 C    4.078662    0.050809   -0.716848
 O    4.771150   -0.829762   -1.578033
 C    4.091719   -0.503828    0.711893
 O    5.433724   -0.845320    1.007245
 H   -2.055335    5.317069    2.198729
 H   -4.476078   -1.020615    1.220105
 H   -3.520297   -4.313929    0.770517
 H   -4.297275   -3.903792   -0.752798
 H   -4.953899   -3.281591    0.765418
 H   -1.410702   -4.445822   -0.361692
 H   -2.161117   -4.032330   -1.894966
 H   -0.480771   -3.573170   -1.587670
 H   -0.174112   -1.359438   -1.174289
 H    0.415258    2.204930   -1.541059
 H    0.259982    0.474326   -1.941532
 H    1.467752    0.270243    0.482860
 H    1.613602    2.750061    0.299740
 H    2.753607    0.738299   -2.243415
 H    2.871679   -1.622735   -1.889553
 H    4.554096    1.039390   -0.714801
 H    5.572651   -1.091681   -1.106244
 H    3.452934   -1.397022    0.769346
 H    3.718503    0.263226    1.395895
 H    5.507935   -1.048220    1.943787
