58 
4d2s_ligand_ani-2x.xyz
 C    1.883364   -3.610348   53.036027
 N    3.056014   -3.820224   52.210351
 O    6.291988   -5.027591   52.844447
 C    4.157937   -2.960471   52.631463
 N   10.501239   -2.394856   55.352108
 O    8.238193   -2.821389   56.618095
 C    5.340893   -3.101605   51.678205
 N   12.603203   -1.764545   55.994421
 C    5.788268   -4.560451   51.586977
 N   12.299264   -3.215588   54.127161
 C    4.608145   -5.458724   51.243783
 N   15.356521   -5.023600   51.216473
 C    3.456537   -5.223312   52.216147
 N   12.456595   -7.177194   50.435931
 C    7.338050   -4.341552   53.390773
 C    8.502276   -4.060226   52.682617
 C    9.551628   -3.390041   53.303831
 C    9.475501   -3.029547   54.643685
 C    8.269068   -3.276420   55.335800
 C    7.217068   -3.941970   54.725576
 C    7.067625   -3.067786   57.369538
 C   11.852816   -2.467375   55.132657
 C   13.916219   -1.833021   55.789325
 C   14.498875   -2.580880   54.771983
 C   13.627103   -3.288161   53.944842
 C   14.097801   -4.135712   52.847777
 C   15.323101   -4.106035   52.231605
 C   14.148747   -5.676962   51.155504
 C   13.329562   -5.157105   52.167140
 C   12.043097   -5.704112   52.310184
 C   11.670569   -6.692096   51.420099
 C   13.677317   -6.684058   50.303355
 H    1.057081   -4.228362   52.669838
 H    2.057272   -3.862848   54.100218
 H    1.570571   -2.562498   52.979353
 H    3.800682   -1.923814   52.631235
 H    4.484368   -3.193650   53.662811
 H   10.236542   -1.955855   56.223322
 H    5.044329   -2.765087   50.677983
 H    6.174284   -2.469039   52.006370
 H    6.569187   -4.668944   50.822879
 H    4.273914   -5.240302   50.221890
 H    4.926216   -6.506257   51.276536
 H   16.140770   -5.190300   50.607480
 H    3.753578   -5.556961   53.228843
 H    2.589587   -5.825316   51.917781
 H    8.599992   -4.366741   51.645501
 H   10.439687   -3.145955   52.734741
 H    6.295857   -4.158612   55.256771
 H    7.240418   -2.627564   58.352435
 H    6.190613   -2.595599   56.908449
 H    6.883175   -4.143993   57.480812
 H   14.534592   -1.261258   56.479120
 H   15.576197   -2.618382   54.656886
 H   16.182198   -3.472700   52.420008
 H   11.357291   -5.378807   53.086923
 H   10.679773   -7.137487   51.486642
 H   14.300242   -7.090711   49.506292
