24 
4d52_ligand_aiqm1.xyz
 C   -0.542458    1.398996    0.424768
 C   -1.506836    0.228029    0.531546
 C   -1.250790   -0.736177   -0.607854
 C    0.204910   -1.180914   -0.578957
 C    1.123514    0.040490   -0.551613
 C    2.579263   -0.315445   -0.356535
 O   -0.811669    2.250644    1.496497
 O   -2.051202   -1.898820   -0.488131
 O    0.458732   -1.978107    0.561273
 O    0.786191    0.935771    0.514430
 O    3.411551    0.820196   -0.517846
 O   -2.858553    0.639339    0.436313
 H   -0.675699    1.935348   -0.531757
 H   -1.309406   -0.274789    1.482602
 H   -1.459615   -0.228929   -1.556921
 H    0.408396   -1.752935   -1.491823
 H    0.998986    0.567589   -1.510460
 H    2.876387   -1.026989   -1.125598
 H    2.709868   -0.779906    0.623599
 H   -0.078573    2.865067    1.571719
 H   -2.947168   -1.604688   -0.306613
 H   -0.281114   -2.589826    0.626489
 H    3.236527    1.414240    0.215291
 H   -3.021140    1.271813    1.139482
