31 
4d7b_ligand_ani-2x.xyz
 O    2.063038    1.537746   -7.286662
 C    1.002861    0.990589   -7.040654
 C    0.642337    0.675938   -5.616819
 C    1.185163    1.512929   -4.629569
 C    0.916254    1.288980   -3.295049
 O    1.415389    2.108148   -2.339353
 C   -0.122504   -0.420350   -5.237737
 C   -0.372365   -0.652738   -3.884036
 N   -1.183314   -1.802952   -3.525224
 O   -1.416090   -2.002140   -2.327653
 O   -1.598405   -2.520728   -4.409639
 C    0.124202    0.195664   -2.894638
 O   -0.062233    0.088723   -1.562079
 C    0.073332    0.636784   -8.161976
 C    0.638815    0.438268   -9.424439
 C   -0.157940    0.124816  -10.513339
 C   -1.547457    0.025880  -10.381628
 C   -2.409455   -0.312765  -11.570037
 C   -2.109366    0.257308   -9.126159
 C   -1.313323    0.560711   -8.027075
 H    1.821696    2.341695   -4.920796
 H    1.103810    1.765165   -1.487719
 H   -0.534173   -1.115806   -5.956789
 H   -0.614204   -0.701445   -1.396775
 H    1.715301    0.537818   -9.529292
 H    0.299251   -0.040193  -11.487422
 H   -2.293465    0.429542  -12.368178
 H   -2.139550   -1.288068  -11.991139
 H   -3.468120   -0.347731  -11.297995
 H   -3.187576    0.194281   -9.000365
 H   -1.774906    0.737633   -7.058163
