31 
4d7b_ligand_aiqm1.xyz
 O    2.060573    1.626787   -7.269293
 C    1.005326    1.064810   -7.044384
 C    0.637956    0.735145   -5.626891
 C    1.157566    1.559820   -4.609707
 C    0.894505    1.296653   -3.282443
 O    1.383864    2.105183   -2.310162
 C   -0.123191   -0.371948   -5.287336
 C   -0.371301   -0.645275   -3.936900
 N   -1.155240   -1.824315   -3.612231
 O   -1.376001   -2.056464   -2.415271
 O   -1.555767   -2.522141   -4.517798
 C    0.119832    0.178173   -2.921094
 O   -0.074424   -0.003704   -1.606386
 C    0.085775    0.687011   -8.152798
 C    0.647983    0.396419   -9.400167
 C   -0.157942    0.048498  -10.473732
 C   -1.551525    0.001338  -10.342951
 C   -2.422028   -0.372082  -11.511716
 C   -2.108957    0.318405   -9.102287
 C   -1.305107    0.655165   -8.016816
 H    1.783996    2.404797   -4.869015
 H    1.111161    1.738981   -1.460907
 H   -0.523474   -1.044805   -6.028184
 H   -0.609467   -0.816201   -1.507781
 H    1.722915    0.452204   -9.509689
 H    0.299416   -0.180156  -11.429076
 H   -2.273638    0.319561  -12.341841
 H   -2.178042   -1.371775  -11.873171
 H   -3.475597   -0.354517  -11.233339
 H   -3.185472    0.303073   -8.982859
 H   -1.766697    0.915065   -7.072177
