33 
4d8a_ligand_aiqm1.xyz
 O   -3.046415   -1.453626   -2.214187
 N   -5.273304    1.845599    0.074817
 C   -1.881127   -0.355902   -0.450229
 C   -3.011011   -0.602230   -1.331245
 N   -3.100647    1.413624    0.708906
 C    2.984936    0.664706   -0.019088
 N    0.161047    0.196874    1.253504
 C    0.332749   -0.750786    0.339441
 C    4.230320    2.627024   -0.240957
 C   -1.964438    0.641490    0.546223
 C   -0.702958   -1.085453   -0.555766
 C    2.771704   -0.562458    0.830754
 N   -0.962391    0.898286    1.383717
 C   -4.087707    1.175217   -0.084541
 C    1.603849   -2.774608    1.078541
 N   -4.083505    0.227119   -1.090290
 O    2.364098    0.960590   -1.010902
 O    3.985312    1.412206    0.477053
 C    1.662845   -1.458542    0.291107
 O   -0.531088   -2.069007   -1.438275
 H   -5.198675    2.619133    0.715831
 H   -5.796311    2.051857   -0.758698
 H    5.060958    3.105439    0.266788
 H    3.347790    3.262479   -0.216930
 H    4.484759    2.409787   -1.276671
 H    3.719652   -1.104076    0.882527
 H    2.528169   -0.227133    1.841249
 H    1.390565   -2.577170    2.131472
 H    2.563482   -3.290536    1.016995
 H    0.830423   -3.433114    0.682293
 H   -4.918710    0.047561   -1.628195
 H    1.878918   -1.686650   -0.757237
 H   -1.342989   -2.127995   -1.981407
