41 
4d8s_ligand_ani-2x.xyz
 C    3.241063   -0.085972   -0.236769
 C    3.520853    0.291511    1.214750
 C   -0.396416    0.393050   -0.166744
 C   -1.271988   -0.089254    0.987713
 C   -1.607624    2.379110   -0.174859
 C   -1.628568    3.795264   -0.636678
 C   -2.720133    1.780021    0.246464
 C   -2.728102    0.369677    0.771086
 C   -1.876814   -2.477892    1.614802
 C   -1.287862   -3.872782    1.646871
 N   -1.085203   -1.531648    1.058406
 C    1.927140    0.487556   -0.752723
 C    1.560683   -1.224110   -2.634105
 C    1.712282    0.245978   -2.251015
 O    0.893256   -0.093416    0.035469
 O   -0.379098    1.807119   -0.197166
 O   -0.422406    4.248817   -1.002496
 O   -2.635615    4.465123   -0.675938
 O   -3.474088    0.340483    1.954467
 O   -3.007069   -2.280347    2.061225
 H    3.227169   -1.177178   -0.338077
 H    4.049459    0.281277   -0.883045
 H    2.751042   -0.117043    1.876234
 H    4.492183   -0.095487    1.538099
 H    3.530902    1.379880    1.345787
 H   -0.801783    0.026260   -1.129036
 H   -0.900592    0.395231    1.902846
 H   -3.652694    2.327904    0.231925
 H   -3.183533   -0.291588    0.012003
 H   -1.304797   -4.231775    2.679656
 H   -0.267038   -3.937926    1.258786
 H   -1.936046   -4.533744    1.063943
 H   -0.145578   -1.805504    0.797971
 H    1.934887    1.574552   -0.582685
 H    0.722110   -1.685313   -2.101495
 H    1.380562   -1.329016   -3.708166
 H    2.462162   -1.796269   -2.391000
 H    2.566801    0.686262   -2.780981
 H    0.833124    0.817737   -2.578625
 H   -0.569137    5.169595   -1.278694
 H   -3.523395   -0.605743    2.201895
