69 
4dce_ligand_ani-2x.xyz
 C   -4.390026    3.219789   -1.020188
 O   -5.322828    2.257465   -0.585428
 C   -4.860930    1.010129   -0.321321
 C   -3.537426    0.609216   -0.502679
 C   -5.832162    0.110206    0.151260
 O   -7.111492    0.546547    0.370347
 C   -8.008038    0.182285   -0.669944
 C   -5.468756   -1.217162    0.380287
 O   -6.407072   -2.145967    0.746725
 C   -6.979960   -1.940047    2.035483
 C   -4.158694   -1.630863    0.180233
 C   -3.185095   -0.718035   -0.244428
 N   -1.884474   -1.218883   -0.415352
 C   -0.673463   -0.599697   -0.628558
 N    0.349604   -1.469947   -0.645695
 N   -0.602295    0.721005   -0.785515
 C    0.637633    1.191320   -0.976049
 C    1.766616    0.409765   -1.048599
 C    1.566351   -0.980927   -0.869501
 N    2.621901   -1.853912   -0.847281
 C    3.810654   -1.635648   -1.666448
 C    2.406009   -3.253424   -0.490445
 C    3.602903   -3.779106    0.297101
 C    4.915409   -3.537329   -0.451835
 C    5.087291   -2.089437   -0.946142
 C    5.533908   -1.106742    0.140560
 O    6.654882   -0.616616    0.128256
 N    4.620285   -0.823941    1.110385
 C    4.803863    0.321445    1.988234
 C    4.120644    1.562173    1.448698
 C    2.922555    2.028869    1.986881
 C    2.268864    3.128298    1.435261
 C    2.786472    3.792138    0.323361
 C    2.063849    4.960791   -0.297966
 C    3.997722    3.329716   -0.203639
 C    4.652303    2.233693    0.343378
 H   -3.931536    2.926896   -1.973964
 H   -4.947142    4.148083   -1.152766
 H   -3.597404    3.369091   -0.275183
 H   -2.776047    1.291251   -0.844942
 H   -7.713821    0.661745   -1.611630
 H   -8.996081    0.541457   -0.374047
 H   -8.030665   -0.906694   -0.798713
 H   -7.481950   -0.969827    2.094779
 H   -6.209830   -2.004677    2.814889
 H   -7.705512   -2.743854    2.176830
 H   -3.910771   -2.672062    0.360598
 H   -1.773885   -2.214678   -0.288705
 H    0.713635    2.273031   -1.084265
 H    2.748546    0.842858   -1.185451
 H    3.720634   -2.197069   -2.610857
 H    3.886195   -0.580241   -1.923275
 H    1.484943   -3.320728    0.089292
 H    2.263151   -3.846703   -1.408577
 H    3.634782   -3.300641    1.282378
 H    3.471736   -4.851711    0.480344
 H    4.940972   -4.192532   -1.333890
 H    5.771513   -3.816654    0.172843
 H    5.915022   -2.057389   -1.659506
 H    3.666355   -1.098093    0.923928
 H    4.412382    0.065604    2.979070
 H    5.882645    0.479514    2.076685
 H    2.489758    1.524293    2.849336
 H    1.332691    3.472747    1.874340
 H    1.104774    5.140567    0.196829
 H    2.654617    5.882281   -0.230592
 H    1.871003    4.787310   -1.364355
 H    4.432718    3.836411   -1.063414
 H    5.588471    1.888983   -0.093718
