69 
4dce_ligand_aiqm1.xyz
 C   -4.451504    3.097057   -0.566766
 O   -5.416085    2.114154   -0.231782
 C   -4.967028    0.841017   -0.074492
 C   -3.626925    0.486955   -0.213981
 C   -5.951427   -0.113682    0.228172
 O   -7.264754    0.254075    0.379091
 C   -7.904270    0.529686   -0.866966
 C   -5.556310   -1.441170    0.396195
 O   -6.470147   -2.429009    0.651188
 C   -7.153384   -2.283039    1.897827
 C   -4.218338   -1.803942    0.266271
 C   -3.252623   -0.850082   -0.051062
 N   -1.936358   -1.314282   -0.176932
 C   -0.760134   -0.669449   -0.466336
 N    0.292990   -1.503264   -0.491259
 N   -0.756223    0.643734   -0.686178
 C    0.460230    1.157179   -0.944083
 C    1.615979    0.414401   -1.007332
 C    1.483920   -0.974089   -0.770032
 N    2.577455   -1.802445   -0.715544
 C    3.738994   -1.553351   -1.563576
 C    2.384327   -3.223324   -0.430332
 C    3.589323   -3.754131    0.339272
 C    4.880491   -3.503982   -0.438396
 C    5.030730   -2.040916   -0.892604
 C    5.504899   -1.101908    0.215290
 O    6.660882   -0.707282    0.242291
 N    4.575759   -0.746052    1.139617
 C    4.793661    0.431120    1.980097
 C    4.212517    1.665119    1.325926
 C    3.014835    2.224469    1.765995
 C    2.447389    3.314055    1.107971
 C    3.059076    3.874775   -0.018029
 C    2.453113    5.059699   -0.722721
 C    4.259246    3.308693   -0.455304
 C    4.830793    2.221136    0.203387
 H   -3.971612    2.866587   -1.520659
 H   -4.993425    4.034475   -0.643895
 H   -3.685134    3.177129    0.206736
 H   -2.888272    1.227283   -0.450427
 H   -7.420515    1.369393   -1.370483
 H   -8.934359    0.785374   -0.629850
 H   -7.875373   -0.351536   -1.512544
 H   -7.734718   -1.364549    1.918387
 H   -6.435461   -2.283998    2.720966
 H   -7.810593   -3.145553    1.980556
 H   -3.953512   -2.847038    0.395261
 H   -1.807222   -2.302409   -0.041511
 H    0.499762    2.230383   -1.095415
 H    2.569414    0.897579   -1.162176
 H    3.614683   -2.090817   -2.513125
 H    3.805099   -0.493740   -1.797650
 H    1.466850   -3.326113    0.139867
 H    2.255753   -3.776374   -1.369350
 H    3.635172   -3.279662    1.322744
 H    3.461048   -4.826134    0.504151
 H    4.875657   -4.131621   -1.335205
 H    5.752639   -3.800627    0.148609
 H    5.825495   -1.996486   -1.635926
 H    3.619894   -1.000092    0.926305
 H    4.321964    0.263504    2.951544
 H    5.866497    0.528630    2.121012
 H    2.517500    1.802065    2.631640
 H    1.518654    3.735453    1.477806
 H    1.397854    4.891131   -0.946168
 H    2.510326    5.953928   -0.099691
 H    2.971823    5.264015   -1.659774
 H    4.757619    3.726489   -1.323267
 H    5.764303    1.797138   -0.149621
