25 
4ddh_ligand_aiqm1.xyz
 O   13.726610   10.717892   -0.273554
 C   14.096141   10.343112   -1.530427
 C   15.471186   10.135041   -1.593215
 C   15.970985   10.403990   -0.263463
 C   14.882790   10.751825    0.463536
 C   17.403693   10.418739    0.163161
 C   18.194706   11.569173   -0.448108
 O   19.346899   11.485877   -0.764164
 O   17.521431   12.734832   -0.567123
 C   16.044581    9.763857   -2.821502
 C   15.215431    9.613536   -3.913300
 C   13.821746    9.825737   -3.812770
 C   13.228034   10.198896   -2.611813
 O   13.134044    9.638916   -4.967802
 C   11.732499    9.847481   -4.913844
 H   14.761298   11.049785    1.493818
 H   17.916073    9.498487   -0.105924
 H   17.475541   10.536074    1.248227
 H   16.593867   12.586393   -0.340529
 H   17.110582    9.603230   -2.922601
 H   15.612588    9.332308   -4.877765
 H   12.170625   10.375826   -2.496004
 H   11.257986    9.158699   -4.211099
 H   11.497464   10.875661   -4.629473
 H   11.364797    9.654433   -5.916762
