25 
4ddh_ligand_dft.xyz
 O    0.199920    2.266296    0.088273
 C    0.759818    1.034007   -0.053464
 C   -0.210781    0.094949   -0.395883
 C   -1.456678    0.830221   -0.468367
 C   -1.131716    2.110016   -0.163745
 C   -2.806664    0.275901   -0.795101
 C   -3.369942   -0.682502    0.259052
 O   -4.130786   -1.573038   -0.008044
 O   -2.996288   -0.441570    1.528007
 C    0.177443   -1.240852   -0.571831
 C    1.506997   -1.568227   -0.405320
 C    2.468606   -0.590129   -0.061949
 C    2.108521    0.741364    0.123773
 O    3.733266   -1.058738    0.066892
 C    4.746943   -0.141639    0.412377
 H   -1.722884    3.012297   -0.104743
 H   -2.796028   -0.270599   -1.741811
 H   -3.534405    1.089078   -0.906083
 H   -2.342936    0.275742    1.538906
 H   -0.548993   -2.005675   -0.829604
 H    1.852470   -2.588421   -0.530825
 H    2.812614    1.518945    0.389886
 H    4.851660    0.644803   -0.346197
 H    4.553762    0.320383    1.389143
 H    5.670561   -0.718806    0.463066
