18 
4ddk_ligand_ani-2x.xyz
 O  -15.462388   -0.834645   -0.015379
 C  -15.706704   -0.381156    1.071720
 O  -16.813859    0.373482    1.254933
 C  -14.831093   -0.609449    2.266321
 C  -13.486891   -0.933353    2.011895
 C  -12.682951   -1.159211    3.100162
 O  -11.344432   -1.439121    3.131286
 C  -11.057663   -1.761427    4.487263
 O  -12.156070   -1.330421    5.282678
 C  -13.174096   -1.094222    4.401171
 C  -14.492026   -0.802448    4.671168
 C  -15.322142   -0.558313    3.570794
 H  -16.800675    0.792620    2.125805
 H  -13.128660   -0.998618    0.990264
 H  -10.153253   -1.235070    4.801590
 H  -10.935104   -2.849506    4.588132
 H  -14.865697   -0.755267    5.689174
 H  -16.377595   -0.363774    3.758824
