18 
4ddk_ligand_aiqm1.xyz
 O  -15.429673   -0.807421   -0.025719
 C  -15.697181   -0.395627    1.068930
 O  -16.832961    0.314442    1.268859
 C  -14.823699   -0.610173    2.264351
 C  -13.466866   -0.899893    2.011217
 C  -12.664895   -1.110316    3.103890
 O  -11.316917   -1.357521    3.142512
 C  -11.076497   -1.783316    4.481231
 O  -12.135143   -1.258572    5.285932
 C  -13.156344   -1.047371    4.403312
 C  -14.477760   -0.774760    4.674527
 C  -15.312962   -0.554943    3.567866
 H  -16.837001    0.675511    2.159655
 H  -13.105029   -0.951466    0.994974
 H  -10.128446   -1.384164    4.825111
 H  -11.108520   -2.876050    4.522354
 H  -14.854876   -0.733461    5.684719
 H  -16.366531   -0.384797    3.754080
