61 
4ddl_ligand_ani-2x.xyz
 C   13.740244   85.571234   36.614988
 O   13.857740   86.152378   37.895550
 C   13.050231   87.209216   38.147973
 C   12.156521   87.733720   37.265607
 C   13.181559   87.796776   39.459287
 O   14.105664   87.210991   40.254319
 C   14.271514   87.752698   41.545210
 C   12.402427   88.868936   39.819121
 C   11.445481   89.416797   38.910315
 C   11.350350   88.849821   37.622316
 N   10.511983   89.308931   36.656993
 N    9.751942   90.334402   36.904743
 C    9.795973   90.927382   38.115929
 C   10.579749   90.513289   39.173085
 C   10.462912   91.188433   40.485414
 C   10.196563   90.503762   41.675439
 C   10.044196   91.170569   42.877665
 C    9.641269   90.419155   44.122748
 C   10.512816   92.576373   40.575609
 N   10.398283   93.253526   41.711537
 C   10.230540   92.576892   42.853581
 N   10.180613   93.321238   44.028616
 C    9.987324   94.761162   43.881396
 C    9.473532   95.352550   45.185215
 C   11.140648   93.004846   45.090814
 C   10.672367   93.565982   46.429106
 C   10.458681   95.077996   46.325364
 C   10.048987   95.776351   47.641912
 C   11.105364   95.570513   48.732038
 C    8.673427   95.342657   48.155790
 O   10.005570   97.170426   47.311454
 H   12.727564   85.183318   36.444327
 H   13.991129   86.291536   35.825439
 H   14.452764   84.745872   36.591640
 H   12.015617   87.348717   36.263514
 H   14.607653   88.796626   41.498327
 H   13.337622   87.699045   42.119718
 H   15.035389   87.146448   42.033900
 H   12.508345   89.324871   40.797591
 H    9.111263   91.765144   38.220293
 H   10.097351   89.418669   41.644205
 H    9.014803   89.560955   43.858472
 H   10.505715   90.022493   44.669977
 H    9.072176   91.057647   44.805305
 H   10.676379   93.168123   39.675283
 H    9.275326   94.933046   43.071772
 H   10.933583   95.244763   43.581554
 H    8.504715   94.884436   45.406595
 H    9.305337   96.429247   45.083721
 H   12.132772   93.427917   44.844257
 H   11.279429   91.923408   45.159823
 H   11.414925   93.318109   47.195541
 H    9.731758   93.076000   46.716034
 H   11.419368   95.539897   46.043784
 H   11.167368   94.524145   49.045502
 H   12.093229   95.895194   48.386666
 H   10.843788   96.164125   49.616646
 H    7.880787   95.604025   47.446171
 H    8.632444   94.265328   48.349062
 H    8.454183   95.852636   49.102209
 H    9.647349   97.630957   48.081033
