61 
4ddl_ligand_aiqm1.xyz
 C   13.870040   85.612785   36.706453
 O   13.875375   86.189745   38.004829
 C   13.050010   87.238017   38.198194
 C   12.221467   87.782236   37.261932
 C   13.091585   87.795851   39.528917
 O   13.959266   87.188228   40.362775
 C   14.068987   87.726932   41.670298
 C   12.292187   88.851881   39.858322
 C   11.412260   89.431313   38.890920
 C   11.393187   88.895513   37.583880
 N   10.617306   89.390066   36.585415
 N    9.850590   90.423540   36.819728
 C    9.826735   90.976822   38.055761
 C   10.564297   90.526797   39.133938
 C   10.440899   91.195966   40.453659
 C   10.148932   90.496359   41.629017
 C   10.007013   91.155077   42.843922
 C    9.619793   90.395180   44.086549
 C   10.555707   92.576548   40.568509
 N   10.444598   93.241369   41.722932
 C   10.188095   92.557199   42.841023
 N   10.038699   93.274664   44.042302
 C    9.786947   94.708027   43.886551
 C    9.361909   95.305843   45.219961
 C   11.127054   93.052882   45.000368
 C   10.753572   93.595871   46.372162
 C   10.446792   95.092178   46.278651
 C   10.107045   95.751331   47.622114
 C   11.240625   95.581958   48.635788
 C    8.796462   95.253036   48.233517
 O    9.979873   97.146652   47.307150
 H   12.881139   85.226322   36.451741
 H   14.180870   86.338264   35.952154
 H   14.582808   84.795890   36.742553
 H   12.161421   87.409713   36.251330
 H   14.391551   88.769559   41.639147
 H   13.116885   87.660947   42.202478
 H   14.814731   87.126769   42.178956
 H   12.334477   89.269193   40.850506
 H    9.152398   91.818134   38.152169
 H   10.003960   89.420715   41.587712
 H    9.065244   89.495045   43.819788
 H   10.489708   90.082354   44.669967
 H    9.000496   91.012758   44.733839
 H   10.762255   93.180473   39.691009
 H    9.001749   94.839352   43.140831
 H   10.685978   95.213451   43.509970
 H    8.434527   94.816633   45.537959
 H    9.152587   96.370175   45.100465
 H   12.043014   93.552617   44.642886
 H   11.348732   91.987128   45.059926
 H   11.576621   93.396982   47.064600
 H    9.872923   93.057429   46.740389
 H   11.356349   95.597844   45.926335
 H   11.336759   94.548230   48.972244
 H   12.189624   95.897122   48.199331
 H   11.045368   96.201237   49.515559
 H    7.956861   95.445881   47.568134
 H    8.829457   94.182598   48.445601
 H    8.608193   95.775414   49.175776
 H    9.790604   97.623605   48.118607
