61 
4ddl_ligand_xtb.xyz
 C   13.566289   85.463381   36.724146
 O   13.670621   86.125165   37.961798
 C   12.880215   87.203677   38.175652
 C   11.976081   87.718253   37.291025
 C   13.064201   87.831166   39.457051
 O   14.013721   87.253071   40.232150
 C   14.269168   87.805436   41.499385
 C   12.313877   88.920910   39.802882
 C   11.349967   89.445117   38.914296
 C   11.201917   88.852365   37.629737
 N   10.352217   89.334233   36.708533
 N    9.642536   90.374177   36.958645
 C    9.704954   90.977028   38.141671
 C   10.522853   90.557681   39.184438
 C   10.501429   91.241112   40.475168
 C   10.362791   90.547991   41.681522
 C   10.338040   91.211671   42.891617
 C   10.041992   90.440694   44.144502
 C   10.548874   92.628436   40.565264
 N   10.557298   93.282018   41.706524
 C   10.494891   92.617744   42.862560
 N   10.477370   93.387783   44.002019
 C   10.237696   94.810329   43.852208
 C    9.563316   95.327879   45.119195
 C   11.375837   93.120621   45.104710
 C   10.752303   93.586520   46.420382
 C   10.459091   95.083782   46.335936
 C    9.877990   95.710430   47.625119
 C   10.813050   95.469326   48.819300
 C    8.475497   95.198596   47.972987
 O    9.824356   97.104247   47.347444
 H   12.558460   85.066700   36.566470
 H   13.828013   86.125811   35.893192
 H   14.277482   84.640477   36.770342
 H   11.819433   87.299526   36.311403
 H   14.619101   88.840315   41.424503
 H   13.381393   87.769542   42.139659
 H   15.053824   87.189660   41.935604
 H   12.456233   89.415542   40.750126
 H    9.044170   91.824651   38.259247
 H   10.211909   89.476346   41.661617
 H    9.423003   89.578061   43.902939
 H   10.953239   90.068017   44.615072
 H    9.509027   91.063587   44.858306
 H   10.614479   93.242715   39.676449
 H    9.594732   94.958273   42.985192
 H   11.178559   95.349759   43.675081
 H    8.616701   94.801081   45.244594
 H    9.363435   96.394132   45.023111
 H   12.319818   93.668756   44.947763
 H   11.614732   92.060625   45.150151
 H   11.445341   93.365862   47.232083
 H    9.827721   93.033316   46.591580
 H   11.404089   95.610860   46.159968
 H   10.795389   94.427504   49.124029
 H   11.831522   95.751722   48.564415
 H   10.492964   96.075695   49.665718
 H    7.761841   95.504403   47.213265
 H    8.467124   94.116296   48.056893
 H    8.157575   95.616474   48.927397
 H    9.452856   97.555153   48.113463
