61 
4ddl_ligand_dft.xyz
 C    8.157365    1.405008   -0.204236
 O    6.826737    1.876704   -0.229754
 C    5.845269    0.957595   -0.158356
 C    6.019602   -0.393675   -0.063587
 C    4.510052    1.506263   -0.201478
 O    4.466366    2.845663   -0.322345
 C    3.195985    3.457214   -0.379710
 C    3.419060    0.682416   -0.128127
 C    3.585014   -0.726165   -0.006028
 C    4.894530   -1.263874    0.005860
 N    5.156756   -2.593665    0.070785
 N    4.171315   -3.443815    0.125167
 C    2.899499   -2.994565    0.136129
 C    2.530682   -1.662338    0.081522
 C    1.104037   -1.275659    0.114692
 C    0.598436   -0.359055    1.044564
 C   -0.747973   -0.034335    1.075664
 C   -1.296253    0.855529    2.159516
 C    0.179412   -1.859323   -0.745838
 N   -1.115999   -1.552569   -0.761077
 C   -1.578587   -0.649173    0.105565
 N   -2.951834   -0.372853    0.079193
 C   -3.800898   -1.352740   -0.594903
 C   -5.253277   -1.142878   -0.176468
 C   -3.330681    0.994527   -0.274783
 C   -4.771521    1.286755    0.135541
 C   -5.728836    0.276950   -0.507694
 C   -7.221372    0.511607   -0.188297
 C   -7.658832    1.920632   -0.606542
 C   -7.572083    0.271017    1.284216
 O   -7.903238   -0.444158   -1.002614
 H    8.370869    0.868309    0.728513
 H    8.361333    0.744932   -1.056445
 H    8.789550    2.290661   -0.268922
 H    6.998122   -0.857115   -0.043620
 H    2.625809    3.110723   -1.250715
 H    2.618464    3.261389    0.532748
 H    3.383657    4.527231   -0.469343
 H    2.416898    1.087758   -0.181894
 H    2.145971   -3.773205    0.213156
 H    1.266417    0.069629    1.788955
 H   -0.689972    0.771226    3.066475
 H   -1.302428    1.913656    1.870646
 H   -2.325724    0.571276    2.398163
 H    0.504393   -2.599374   -1.475329
 H   -3.461403   -2.352191   -0.316834
 H   -3.701146   -1.274923   -1.690168
 H   -5.324826   -1.321225    0.903607
 H   -5.892152   -1.873541   -0.679654
 H   -3.224204    1.140791   -1.365233
 H   -2.653966    1.701440    0.207725
 H   -5.015186    2.311515   -0.165365
 H   -4.840670    1.235373    1.229854
 H   -5.649149    0.397744   -1.599100
 H   -7.226778    2.693889    0.036449
 H   -7.369481    2.120431   -1.643330
 H   -8.749759    2.010173   -0.534924
 H   -7.380860   -0.767191    1.567349
 H   -7.003304    0.927457    1.950608
 H   -8.636408    0.476800    1.454793
 H   -8.846429   -0.369406   -0.812254
