21 
4de5_ligand_dft.xyz
 O    3.007821   -1.416052    0.556753
 C    2.732644   -0.402145   -0.023564
 O    3.647858    0.491849   -0.448986
 C    1.337548    0.086622   -0.369664
 O    0.434776   -0.950080   -0.078106
 C   -0.876804   -0.557888   -0.045378
 C   -1.855738   -1.545760   -0.067645
 C   -3.199403   -1.193243   -0.046406
 C   -3.568310    0.150803   -0.010033
 C   -2.592838    1.139423    0.024150
 C   -1.246308    0.790242    0.013903
 O   -0.310662    1.788592    0.048371
 C    0.974672    1.343582    0.425305
 H    4.516132    0.144082   -0.189094
 H    1.307067    0.332783   -1.440792
 H   -1.538027   -2.582511   -0.107632
 H   -3.957931   -1.968922   -0.065320
 H   -4.616898    0.430344    0.000320
 H   -2.849537    2.192988    0.065735
 H    0.999143    1.110810    1.498771
 H    1.668938    2.156146    0.209742
