40 
4dea_ligand_dft.xyz
 C   -3.378316    3.390417    0.055297
 N    2.124560   -2.548641   -0.173930
 O   -2.324169    4.232914    0.091525
 N   -0.194380   -2.381494   -0.009780
 O   -4.498721    3.827730   -0.007554
 N    0.935353   -4.489333   -0.078428
 N   -2.509489   -2.246100    0.162974
 C    2.018522    1.143193   -0.540940
 C    3.303318    1.489976   -0.119162
 C    4.184760    0.464038    0.232568
 C    3.774821   -0.859468    0.209409
 C    2.468910   -1.196746   -0.172942
 C    1.596637   -0.174803   -0.574873
 C    3.658911    2.941848   -0.104571
 C    0.890944   -3.151512   -0.088124
 C   -1.367629   -3.004170    0.086389
 C   -1.454789   -4.407594    0.100955
 C   -0.255077   -5.086993    0.015667
 C   -2.647894   -0.848716    0.148148
 C   -3.841403   -0.319918   -0.360532
 C   -4.057923    1.046793   -0.370868
 C   -3.078490    1.924486    0.098535
 C   -1.899229    1.392750    0.623920
 C   -1.683023    0.021843    0.665894
 O    3.025484    3.781038   -0.692911
 O    4.741929    3.302246    0.619891
 H    2.880666   -3.216192   -0.118561
 H   -1.495382    3.752087   -0.031967
 H   -3.371822   -2.763336    0.079771
 H    1.348482    1.935170   -0.858980
 H    5.217050    0.672906    0.504398
 H    4.471085   -1.643151    0.495856
 H    0.597598   -0.418231   -0.904459
 H   -2.401373   -4.929315    0.180730
 H   -0.239563   -6.174503    0.025060
 H   -4.600906   -0.988488   -0.758172
 H   -4.985932    1.457485   -0.753820
 H   -1.139717    2.037398    1.060737
 H   -0.772430   -0.370425    1.094755
 H    5.045466    2.563606    1.162571
