40 
4dea_ligand_aiqm1.xyz
 C   -6.796713  -29.042433    1.106158
 N   -2.685230  -32.810871    7.091091
 O   -6.020687  -29.742472    0.246597
 N   -4.281506  -31.125925    6.862712
 O   -7.685734  -28.353333    0.685365
 N   -3.442436  -31.843065    8.999418
 N   -5.871166  -29.430734    6.719688
 C   -3.081162  -33.250213    3.426516
 C   -1.888178  -33.901035    3.105299
 C   -0.993225  -34.191090    4.137358
 C   -1.279872  -33.817601    5.443110
 C   -2.468282  -33.143203    5.754554
 C   -3.383512  -32.877683    4.726181
 C   -1.671471  -34.245612    1.669291
 C   -3.517150  -31.881140    7.661570
 C   -5.066123  -30.238695    7.479708
 C   -5.095184  -30.114468    8.881517
 C   -4.250292  -30.948097    9.584023
 C   -6.038123  -29.381763    5.326193
 C   -7.258076  -28.896870    4.835096
 C   -7.476878  -28.793743    3.472057
 C   -6.492039  -29.183001    2.561849
 C   -5.271653  -29.647064    3.052615
 C   -5.032016  -29.736184    4.419357
 O   -2.503663  -34.060337    0.822294
 O   -0.476869  -34.780464    1.324267
 H   -2.074258  -33.240270    7.764869
 H   -5.435888  -30.331066    0.732650
 H   -6.544066  -28.900355    7.244162
 H   -3.775965  -33.047026    2.622378
 H   -0.063319  -34.719378    3.956390
 H   -0.574703  -34.051057    6.232488
 H   -4.310394  -32.381517    4.952900
 H   -5.734465  -29.400746    9.379646
 H   -4.208497  -30.906070   10.664225
 H   -8.037360  -28.594510    5.527011
 H   -8.412242  -28.411451    3.088384
 H   -4.465828  -29.905662    2.375404
 H   -4.081495  -30.090682    4.780982
 H    0.099519  -34.830813    2.090528
