40 
4dea_ligand_xtb.xyz
 C   -6.030989  -29.664956    0.983973
 N   -2.782582  -33.014992    7.287618
 O   -5.236715  -30.449352    0.258024
 N   -4.247921  -31.266071    7.003912
 O   -6.859718  -28.973547    0.445145
 N   -3.492519  -31.884304    9.159857
 N   -5.702540  -29.508089    6.655477
 C   -3.783581  -33.185234    3.771424
 C   -2.546819  -33.319955    3.137995
 C   -1.406289  -33.516932    3.916413
 C   -1.487301  -33.472393    5.294221
 C   -2.710763  -33.228517    5.919520
 C   -3.870006  -33.163699    5.142001
 C   -2.506416  -33.127331    1.671156
 C   -3.548427  -32.021600    7.839185
 C   -4.987068  -30.288662    7.510978
 C   -5.035097  -30.083771    8.902899
 C   -4.249268  -30.917427    9.669012
 C   -5.727475  -29.568382    5.262464
 C   -6.869728  -29.117090    4.598088
 C   -6.937122  -29.162999    3.223421
 C   -5.874329  -29.663478    2.470436
 C   -4.721656  -30.075095    3.132622
 C   -4.644349  -30.020354    4.511424
 O   -3.309741  -32.426226    1.103350
 O   -1.526384  -33.733370    0.988030
 H   -2.053223  -33.375932    7.885488
 H   -4.628735  -31.032876    0.745519
 H   -6.393281  -28.904645    7.079941
 H   -4.670879  -33.088733    3.165327
 H   -0.433044  -33.633848    3.457495
 H   -0.592689  -33.576949    5.890693
 H   -4.826066  -33.052835    5.622236
 H   -5.642218  -29.309431    9.341067
 H   -4.208143  -30.819114   10.745735
 H   -7.704968  -28.734822    5.168282
 H   -7.815658  -28.817140    2.700514
 H   -3.860845  -30.421721    2.579222
 H   -3.745454  -30.333559    5.012980
 H   -0.976194  -34.292270    1.552760
