42 
4ded_ligand_ani-2x.xyz
 N   -2.464285  -32.628788    7.049537
 N   -3.688709  -30.675126    6.877071
 N   -3.260922  -31.709014    8.991566
 N   -4.946201  -28.717264    6.709045
 C   -0.734213  -33.706748    3.992579
 N   -7.609256  -26.031820    4.787138
 C   -1.593028  -33.270719    2.983388
 N   -1.881190  -32.879491    0.592748
 C   -2.781422  -32.635196    3.346773
 C   -3.099084  -32.410856    4.679645
 C   -2.210144  -32.815911    5.684270
 C   -1.036159  -33.486807    5.323566
 C   -1.201836  -33.563501    1.570192
 C   -3.176080  -31.627274    7.658560
 C   -4.386808  -29.711066    7.468869
 C   -4.568633  -29.699604    8.864017
 C   -3.968587  -30.729461    9.564427
 C   -4.937007  -28.578893    5.321485
 C   -3.929026  -29.144982    4.533744
 C   -4.023056  -29.123429    3.150016
 C   -5.106560  -28.517526    2.522579
 C   -6.054881  -27.869387    3.299016
 C   -5.955762  -27.820670    4.693025
 C   -6.912251  -26.985370    5.482466
 O   -7.105924  -27.124255    6.689797
 O   -0.343561  -34.384841    1.295379
 H   -1.998148  -33.245136    7.698975
 H   -5.666534  -28.146380    7.151841
 H    0.172215  -34.231718    3.706290
 H   -8.140625  -25.404827    5.374397
 H   -7.207778  -25.626710    3.955825
 H   -1.506639  -32.996386   -0.338067
 H   -2.303216  -31.987362    0.797064
 H   -3.498448  -32.336759    2.585033
 H   -4.032581  -31.925899    4.938429
 H   -0.354093  -33.828216    6.099059
 H   -5.138386  -28.915478    9.355592
 H   -4.055602  -30.782258   10.647681
 H   -3.080147  -29.615032    5.012028
 H   -3.245092  -29.602755    2.560751
 H   -5.198661  -28.519214    1.440368
 H   -6.909282  -27.401974    2.814334
