42 
4ded_ligand_dft.xyz
 N   -1.616777    2.658568    0.010495
 N    0.478680    1.638549    0.018194
 N    0.208934    4.018350   -0.027011
 N    2.624615    0.681598    0.031763
 C   -4.572416    0.535154    0.520119
 N    5.807215   -2.036635    0.210302
 C   -4.196100   -0.662951   -0.089634
 N   -4.673666   -3.039260   -0.340934
 C   -2.940736   -0.736934   -0.697540
 C   -2.068630    0.342811   -0.682301
 C   -2.433944    1.525661   -0.028109
 C   -3.702407    1.611061    0.561753
 C   -5.180497   -1.789378   -0.079196
 C   -0.245693    2.760738   -0.007034
 C    1.804496    1.779947    0.006076
 C    2.403161    3.054974   -0.036654
 C    1.541117    4.130755   -0.043058
 C    2.342972   -0.676948    0.115317
 C    1.050216   -1.181955    0.332700
 C    0.820781   -2.547540    0.362877
 C    1.858786   -3.457527    0.179652
 C    3.144053   -2.970204    0.014030
 C    3.420634   -1.596912    0.007327
 C    4.835639   -1.127253   -0.096555
 O    5.154060    0.010409   -0.445444
 O   -6.369435   -1.612086    0.128610
 H   -2.070492    3.551880    0.135689
 H    3.610335    0.863630   -0.154958
 H   -5.557823    0.601100    0.969174
 H    6.746208   -1.666667    0.236555
 H    5.610786   -2.822870    0.808031
 H   -5.322680   -3.800171   -0.201925
 H   -3.704040   -3.239043   -0.152420
 H   -2.644590   -1.629569   -1.242215
 H   -1.113503    0.278185   -1.185190
 H   -3.998307    2.528835    1.063243
 H    3.479267    3.180624   -0.048440
 H    1.930157    5.146498   -0.061014
 H    0.234971   -0.487930    0.468072
 H   -0.194183   -2.900333    0.523553
 H    1.671184   -4.525938    0.169453
 H    3.954114   -3.674000   -0.151216
