44 
4deh_ligand_ani-2x.xyz
 C   21.214670    9.712677   57.059169
 C   22.154500    8.872138   57.709043
 C   21.779210    7.732984   58.466015
 C   22.750685    6.975625   59.059107
 C   24.106130    7.360833   58.893214
 N   24.499327    8.403177   58.203478
 C   23.535752    9.164974   57.606866
 C   23.943681   10.299935   56.856116
 C   23.014454   11.089082   56.236294
 C   21.632632   10.790703   56.324044
 C   20.647873   11.704813   55.632540
 N   20.364252   12.904528   56.405705
 C   19.428218   13.089905   57.363442
 C   18.366821   12.203621   57.840418
 O   18.114217   11.102230   57.372750
 N   21.104732   14.010818   56.277486
 N   20.656085   14.906330   57.109261
 C   19.619730   14.377502   57.795941
 C   18.750396   14.999767   58.834417
 C   18.207905   13.857448   59.699212
 N   17.637765   12.780328   58.872293
 C   16.412451   12.179062   59.293701
 C   16.338625   10.817811   59.587060
 C   15.143725   10.278898   60.051266
 C   14.014022   11.077760   60.205730
 C   14.085737   12.433565   59.900577
 C   15.284100   12.983667   59.460406
 H   20.156590    9.484204   57.158155
 H   20.725254    7.477935   58.561985
 H   22.508062    6.095267   59.647703
 H   24.892086    6.767087   59.360336
 H   25.007206   10.506054   56.796486
 H   23.326411   11.966205   55.671501
 H   19.692603   11.196942   55.481957
 H   21.040469   12.043514   54.669535
 H   17.916487   15.529776   58.358142
 H   19.305538   15.715740   59.444490
 H   17.430500   14.211620   60.378100
 H   19.017402   13.450633   60.322091
 H   17.211196   10.191854   59.440583
 H   15.095296    9.217469   60.282013
 H   13.082864   10.644399   60.561156
 H   13.214327   13.071625   60.022307
 H   15.349613   14.042793   59.225606
