30 
4der_ligand_aiqm1.xyz
 C   22.062088   43.544867   40.203183
 C   22.186187   43.700958   41.574146
 C   21.754188   42.681975   42.423229
 O   21.896983   42.880576   43.762118
 C   21.205831   41.516369   41.894954
 C   21.080599   41.369274   40.519407
 C   21.501535   42.384912   39.655314
 C   21.354293   42.248431   38.200364
 O   22.160162   43.110625   37.519926
 C   20.521819   41.399562   37.565117
 C   20.442601   41.320393   36.111622
 O   19.679327   40.543912   35.551613
 C   21.351697   42.248197   35.411577
 C   22.170889   43.106453   36.158457
 C   23.051759   44.018914   35.594076
 C   23.122390   44.079276   34.212252
 O   23.992694   44.981484   33.687312
 C   22.335945   43.251274   33.411051
 C   21.460599   42.345818   34.005410
 O   20.695414   41.538493   33.242729
 H   22.399920   44.328846   39.538261
 H   22.614619   44.597233   42.001346
 H   21.564098   42.113292   44.232193
 H   20.879312   40.720031   42.553510
 H   20.667274   40.449824   40.128361
 H   19.868668   40.746814   38.123256
 H   23.660879   44.657139   36.214709
 H   23.961105   44.937101   32.729528
 H   22.403412   43.310024   32.328203
 H   20.882714   41.725335   32.319277
