29 
4des_ligand_aiqm1.xyz
 C   22.026075   -0.038998   -7.294220
 C   22.991332   -0.974013   -7.206662
 C   23.427158   -1.534612   -5.931769
 C   22.709709   -0.989718   -4.763994
 C   22.943690   -1.390301   -3.425562
 C   22.234285   -0.833714   -2.368390
 C   21.270266    0.139075   -2.623794
 C   21.002638    0.565032   -3.915491
 C   21.727851   -0.009410   -4.953968
 O   21.407838    0.465743   -6.189053
 O   24.311037   -2.379176   -5.871156
 O   23.877278   -2.333733   -3.188426
 O   20.611628    0.643358   -1.547994
 C   20.935770    1.836747   -8.509555
 C   20.496815    2.433424   -9.685948
 C   20.639773    1.770205  -10.902921
 C   21.220534    0.505777  -10.936659
 C   21.666272   -0.094412   -9.763339
 C   21.531297    0.573123   -8.539867
 H   23.487558   -1.333831   -8.095058
 H   22.411855   -1.138514   -1.343668
 H   20.259049    1.316054   -4.142772
 H   23.914073   -2.490572   -2.241451
 H   19.975668    1.297459   -1.844608
 H   20.825051    2.344134   -7.559965
 H   20.042151    3.414843   -9.652074
 H   20.297694    2.234478  -11.817994
 H   21.327228   -0.018980  -11.876235
 H   22.102528   -1.084167   -9.800307
