29 
4des_ligand_ani-2x.xyz
 C   22.041117   -0.026062   -7.286104
 C   22.997445   -0.971845   -7.198632
 C   23.445162   -1.536436   -5.930582
 C   22.713609   -0.987260   -4.757554
 C   22.920964   -1.413010   -3.424611
 C   22.216927   -0.851832   -2.368592
 C   21.279850    0.154379   -2.612211
 C   21.042408    0.598037   -3.904531
 C   21.758759    0.014608   -4.944250
 O   21.462816    0.512725   -6.179638
 O   24.328908   -2.372852   -5.872905
 O   23.824893   -2.385858   -3.199424
 O   20.627475    0.663505   -1.539646
 C   20.892234    1.827197   -8.515380
 C   20.440571    2.407274   -9.693697
 C   20.614616    1.750800  -10.910007
 C   21.243048    0.509370  -10.942542
 C   21.702773   -0.070835   -9.765989
 C   21.534489    0.583079   -8.541917
 H   23.501035   -1.334463   -8.083853
 H   22.381261   -1.181284   -1.346424
 H   20.322868    1.377146   -4.132941
 H   23.853228   -2.570526   -2.251361
 H   20.012734    1.345397   -1.839287
 H   20.755534    2.331502   -7.563921
 H   19.947239    3.376070   -9.663355
 H   20.258459    2.205871  -11.830352
 H   21.379642   -0.009733  -11.887810
 H   22.174035   -1.049664   -9.805384
