31 
4det_ligand_xtb.xyz
 C   20.310238    1.051393   -0.733432
 C   21.200502    0.090681   -1.177629
 C   21.434411   -0.046737   -2.570671
 C   20.762382    0.789756   -3.472863
 C   19.870204    1.750785   -3.010810
 C   19.650170    1.875228   -1.645124
 C   22.347647   -1.026891   -3.082257
 C   22.501062   -1.067775   -4.528959
 C   21.806223   -0.214004   -5.341378
 C   21.866798   -0.149698   -6.798136
 C   22.682894   -1.001447   -7.549703
 C   22.716774   -0.914469   -8.923453
 C   21.936215    0.026599   -9.591509
 C   21.120282    0.878929   -8.853597
 C   21.087266    0.790822   -7.478695
 O   20.951003    0.697290   -4.801600
 O   23.003584   -1.827506   -2.384856
 O   22.001198    0.076982  -10.944358
 O   23.373509   -2.008361   -4.957850
 O   18.793737    2.793133   -1.148538
 O   21.830849   -0.696138   -0.308044
 H   20.123045    1.167030    0.320320
 H   19.362211    2.385446   -3.720856
 H   23.292999   -1.734762   -7.052933
 H   23.344890   -1.569722   -9.505188
 H   20.509961    1.613235   -9.363308
 H   20.450245    1.457952   -6.920308
 H   21.416214    0.767315  -11.280334
 H   23.691034   -2.439766   -4.134434
 H   18.396495    3.303850   -1.865143
 H   22.416955   -1.308948   -0.820450
