32 
4deu_ligand_xtb.xyz
 C   -2.516776    1.294056    0.947337
 C   -3.889155    1.217682    0.719223
 C   -4.411046    0.259621   -0.139953
 C   -3.566098   -0.618643   -0.805191
 C   -2.165496   -0.536468   -0.604508
 C   -1.660601    0.419424    0.303886
 C   -1.268408   -1.346821   -1.394404
 C    0.195432   -0.999863   -1.232619
 C    0.479286   -0.570294    0.207701
 O   -0.346627    0.525656    0.585942
 O   -1.642443   -2.213687   -2.179113
 C    1.922302   -0.166657    0.369050
 C    2.329004    1.124545    0.066705
 C    3.657867    1.487086    0.179262
 C    4.603960    0.554374    0.587433
 C    4.200838   -0.743971    0.886928
 C    2.870866   -1.094806    0.780226
 O    5.921166    0.863072    0.708460
 O   -4.683694    2.091782    1.371685
 O   -4.095749   -1.513623   -1.638130
 H   -2.125835    2.026163    1.632481
 H   -5.474083    0.182999   -0.312517
 H    0.423585   -0.172808   -1.912605
 H    0.816756   -1.850983   -1.511206
 H    0.253214   -1.416261    0.878323
 H    1.596530    1.853429   -0.243544
 H    3.964500    2.498755   -0.051850
 H    4.943956   -1.457303    1.204789
 H    2.565684   -2.102829    1.019729
 H    6.064974    1.789333    0.479387
 H   -5.608943    1.932178    1.145114
 H   -3.355567   -2.027339   -2.047920
