31 
4dew_ligand_ani-2x.xyz
 C   19.669243   40.867174   36.107065
 O   18.541572   40.037341   34.230944
 C   19.513985   40.843134   34.721920
 O   22.076932   43.145295   33.626806
 C   20.322365   41.610441   33.881897
 O   23.280944   44.013056   35.764605
 C   21.309949   42.422223   34.435768
 O   20.786641   41.678273   37.989646
 C   21.487331   42.471159   35.836290
 O   20.401280   40.103511   42.632518
 C   20.654805   41.685253   36.633012
 O   21.507576   41.957178   44.194826
 C   22.511822   43.313645   36.442924
 C   22.547892   43.267450   37.884454
 C   21.692236   42.494020   38.595260
 C   21.647734   42.391418   40.069055
 C   21.024198   41.289841   40.676631
 C   20.999334   41.173736   42.052826
 C   21.591919   42.170284   42.845503
 C   22.198962   43.265117   42.253567
 C   22.229583   43.375194   40.866740
 H   19.042057   40.266226   36.751881
 H   18.530157   40.104369   33.267960
 H   22.712311   43.644718   34.202867
 H   20.205820   41.592922   32.802667
 H   20.485381   40.201512   43.592394
 H   21.934648   42.683397   44.665300
 H   23.304911   43.863103   38.374271
 H   20.559052   40.518589   40.071602
 H   22.653798   44.036524   42.871754
 H   22.692661   44.249996   40.421247
