31 
4dew_ligand_aiqm1.xyz
 C   19.644210   40.893273   36.114552
 O   18.528830   40.061334   34.241390
 C   19.510691   40.863468   34.728209
 O   22.108482   43.125958   33.635149
 C   20.330013   41.607956   33.881343
 O   23.289244   43.987836   35.762828
 C   21.319768   42.412175   34.437343
 O   20.748928   41.712785   37.999560
 C   21.488030   42.471729   35.842529
 O   20.453616   40.072202   42.619147
 C   20.636282   41.702317   36.641059
 O   21.523854   41.957576   44.184411
 C   22.512011   43.298296   36.442724
 C   22.553138   43.255247   37.889948
 C   21.685550   42.494535   38.595977
 C   21.645222   42.395464   40.061984
 C   21.048935   41.281601   40.666820
 C   21.027018   41.160630   42.045161
 C   21.595871   42.165466   42.834971
 C   22.175561   43.276347   42.245531
 C   22.205107   43.397174   40.858022
 H   18.999052   40.308274   36.750575
 H   18.522415   40.113860   33.283415
 H   22.729733   43.611322   34.229990
 H   20.219688   41.578117   32.804413
 H   20.529549   40.166705   43.574541
 H   21.932422   42.691984   44.646329
 H   23.307039   43.840694   38.394516
 H   20.597273   40.499310   40.070619
 H   22.604296   44.054795   42.865789
 H   22.645270   44.277671   40.415356
