32 
4dfu_ligand_xtb.xyz
 C   -4.893790   24.575975  -29.253524
 C   -4.846421   25.850111  -29.789117
 C   -5.296807   26.060657  -31.118303
 C   -5.781420   24.978372  -31.866613
 C   -5.822709   23.703433  -31.314155
 C   -5.378969   23.510509  -30.012146
 C   -5.268791   27.361559  -31.720204
 C   -5.757678   27.445535  -33.087529
 C   -6.215040   26.338805  -33.749364
 C   -6.729107   26.284744  -35.113132
 C   -7.160718   25.067644  -35.646739
 C   -7.650747   24.990915  -36.933681
 C   -7.725595   26.126070  -37.728810
 C   -7.293793   27.352164  -37.199360
 C   -6.804087   27.428992  -35.913365
 O   -6.219165   25.127978  -33.129839
 O   -4.862692   28.402271  -31.162826
 O   -7.387908   28.445198  -38.024649
 O   -8.205834   26.051295  -38.990310
 O   -5.707676   28.697562  -33.604227
 O   -5.399339   22.291959  -29.432453
 O   -4.383440   26.867766  -29.065708
 H   -4.555530   24.401322  -28.246612
 H   -6.199168   22.883322  -31.906206
 H   -7.109990   24.176078  -35.044018
 H   -7.984254   24.053091  -37.347361
 H   -6.478197   28.380432  -35.527445
 H   -7.065514   29.223840  -37.557692
 H   -8.177048   26.938758  -39.375476
 H   -5.333904   29.240887  -32.875288
 H   -5.752111   21.634291  -30.045088
 H   -4.431960   27.685165  -29.622860
