88 
4dj7_ligand_aiqm1.xyz
 C   -3.271196   -1.677897    2.031371
 C   -2.936682   -1.979857    0.534560
 C   -3.951329   -2.882480   -0.150318
 C   -5.255625   -2.161386   -0.470755
 C   -4.920970   -0.895760   -1.255581
 C   -3.989445   -0.002410   -0.423130
 C   -3.571695    1.278259   -1.152577
 C   -2.429505    2.006521   -0.470430
 C   -2.134853    3.346885   -1.132650
 C   -7.058818    0.283625   -0.862152
 C   -8.341934    0.722357   -1.527128
 N   -6.092397   -0.167714   -1.723584
 O   -2.597077   -1.011712    2.764807
 O   -4.402940   -2.278462    2.430942
 O   -6.093735   -2.966486   -1.300036
 O   -2.783636   -0.761566   -0.156704
 O   -3.165556    1.017840   -2.491022
 O   -2.836470    2.200962    0.875470
 O   -1.231133    4.063085   -0.312395
 O   -6.885586    0.348267    0.341400
 C    5.284808    2.550548   -0.765390
 C    5.630412    1.369719    0.160078
 C    4.744076    0.185798   -0.186864
 C    3.292738    0.627957   -0.120205
 C    3.027280    1.881943   -0.952540
 C    1.619288    2.381624   -0.709062
 C    7.984307    1.625518    0.775735
 C    9.325956    0.942166    0.827772
 N    7.027494    0.987930    0.054985
 O    6.032631    3.678557   -0.545344
 O    5.001347   -0.876892    0.720320
 O    2.457039   -0.433377   -0.572554
 O    3.917742    2.904579   -0.537845
 O    1.363333    3.617468   -1.353399
 O    7.769924    2.692693    1.341823
 C    1.570280   -0.870951    0.393340
 C    0.381203   -1.575284   -0.243523
 C   -0.532237   -1.941043    0.925240
 C    0.200825   -2.863999    1.901670
 C    1.498351   -2.191801    2.360212
 C    2.387721   -3.097834    3.183816
 O   -0.200178   -0.702307   -1.181109
 O   -1.703877   -2.640094    0.467752
 O    0.528732   -4.106646    1.305229
 O    2.279242   -1.763124    1.237874
 O    3.451743   -2.376475    3.777023
 H   -3.504620   -3.202344   -1.092874
 H   -4.137864   -3.770219    0.458713
 H   -5.782508   -1.888338    0.444468
 H   -4.371239   -1.205221   -2.143261
 H   -4.463354    0.268803    0.527698
 H   -4.449785    1.933428   -1.137767
 H   -1.513734    1.398517   -0.506335
 H   -3.058377    3.931519   -1.194238
 H   -1.752552    3.189203   -2.138792
 H   -9.076033   -0.078585   -1.438572
 H   -8.730430    1.591560   -1.004083
 H   -8.203157    0.955310   -2.582965
 H   -6.418041   -0.421375   -2.641858
 H   -4.540932   -2.013827    3.349030
 H   -6.406704   -3.707880   -0.780483
 H   -3.955397    0.971877   -3.032760
 H   -2.272933    2.898139    1.222755
 H   -0.349490    4.028900   -0.701389
 H    5.405153    2.248236   -1.818113
 H    5.425242    1.689098    1.186158
 H    4.971489   -0.139120   -1.211365
 H    3.069933    0.857899    0.926046
 H    3.171472    1.653703   -2.018652
 H    0.902416    1.661629   -1.098839
 H    1.478778    2.491350    0.375213
 H   10.105714    1.698251    0.803136
 H    9.463924    0.235910    0.009134
 H    9.405248    0.406429    1.773974
 H    7.211731    0.040211   -0.235467
 H    6.562595    3.566527    0.263295
 H    4.193762   -1.408448    0.753649
 H    2.109976    4.193706   -1.161198
 H    1.215195   -0.017927    0.997401
 H    0.737070   -2.483301   -0.742707
 H   -0.806320   -1.023367    1.441831
 H   -0.449666   -3.019599    2.773856
 H    1.219814   -1.311678    2.958904
 H    2.746143   -3.920299    2.560513
 H    1.800559   -3.509587    4.004426
 H   -1.159183   -0.732856   -1.068706
 H   -0.253596   -4.427810    0.850096
 H    4.069900   -2.117066    3.090412
