35 
4dju_ligand_xtb.xyz
 O   21.928728   13.174505   22.587314
 C   22.023769   11.990418   22.796009
 C   21.738250   10.842563   21.817760
 N   22.111604    9.690032   22.609936
 C   22.418928   10.008527   23.893486
 N   22.431818   11.417002   23.958927
 N   22.658027    9.160859   24.794026
 C   22.807905   12.171197   25.126151
 C   20.276245   10.755259   21.416325
 C   19.926653    9.944430   20.342258
 C   18.600301    9.796548   19.981359
 C   17.610091   10.455347   20.691068
 C   17.952828   11.258667   21.764144
 C   19.280157   11.405105   22.130772
 C   22.631312   11.045770   20.608180
 C   22.320326   12.059483   19.710337
 C   23.131834   12.285923   18.614087
 C   24.255929   11.503659   18.406072
 C   24.571131   10.499463   19.304638
 C   23.765410   10.272800   20.407316
 H   21.819856    8.758222   22.373096
 H   22.906748    9.547940   25.695343
 H   22.134195   11.954244   25.958490
 H   23.833180   11.935150   25.418119
 H   22.737137   13.226792   24.867184
 H   20.700699    9.436102   19.785157
 H   18.339591    9.166787   19.143724
 H   16.574301   10.342716   20.407519
 H   17.185299   11.774780   22.321400
 H   19.536720   12.039125   22.966089
 H   21.448341   12.671686   19.881814
 H   22.886455   13.076253   17.920497
 H   24.887527   11.679759   17.547941
 H   25.449910    9.890465   19.151088
 H   24.017298    9.495220   21.113273
