35 
4dju_ligand_ani-2x.xyz
 O   22.038294   13.133442   22.718744
 C   22.103125   11.930197   22.833000
 C   21.780731   10.853499   21.769620
 N   22.192008    9.632167   22.482665
 C   22.421146    9.872572   23.826468
 N   22.492324   11.263461   23.975979
 N   22.539548    8.961470   24.702826
 C   22.797684   11.923594   25.222752
 C   20.285569   10.777289   21.433007
 C   19.836991    9.728844   20.621357
 C   18.492269    9.601126   20.295102
 C   17.567939   10.522077   20.783114
 C   18.004454   11.570329   21.587323
 C   19.353354   11.698277   21.907559
 C   22.649074   11.105580   20.533641
 C   22.186737   11.890028   19.475150
 C   23.006652   12.164069   18.385423
 C   24.304397   11.663643   18.348500
 C   24.777878   10.892158   19.406694
 C   23.956791   10.622591   20.494853
 H   21.688562    8.781004   22.282614
 H   22.720169    9.358382   25.621939
 H   22.025612   11.728541   25.976869
 H   23.767240   11.588260   25.605612
 H   22.838035   12.994217   25.021835
 H   20.557485    9.012902   20.227963
 H   18.164050    8.776962   19.666452
 H   16.514527   10.424413   20.534420
 H   17.292153   12.297699   21.968822
 H   19.686248   12.528347   22.524282
 H   21.166929   12.270213   19.506876
 H   22.632830   12.768907   17.563470
 H   24.947614   11.875439   17.497892
 H   25.792052   10.500738   19.384684
 H   24.318030   10.020363   21.323394
