49 
4djv_ligand_aiqm1.xyz
 O   -3.735682   -0.538757    1.951526
 C   -3.278061   -0.725613    0.848729
 C   -1.917009   -0.231966    0.287133
 N   -2.015294   -0.685122   -1.104670
 C   -3.113649   -1.493542   -1.319868
 N   -3.897951   -1.410636   -0.163232
 N   -3.334565   -2.147893   -2.388067
 C   -5.187383   -2.050188   -0.040385
 C   -1.870103    1.294194    0.400378
 C   -1.568500    1.887824    1.630166
 C   -1.545487    3.273047    1.753530
 C   -1.816954    4.081114    0.651938
 C   -2.118174    3.495012   -0.573139
 C   -2.147009    2.107036   -0.701416
 C   -0.707255   -0.880847    0.957485
 C   -0.796405   -1.673368    2.104314
 C    0.357202   -2.254358    2.631727
 C    1.593390   -2.060763    2.024038
 C    1.700273   -1.264924    0.877116
 C    0.539519   -0.686614    0.361496
 C    5.483061   -0.580073   -1.005083
 C    3.309227    0.223543   -0.315704
 C    3.011012   -1.035638    0.223983
 C    3.954338   -2.060399    0.141530
 C    5.181480   -1.825616   -0.477200
 C    4.541732    0.452063   -0.921860
 O    4.919994    1.641879   -1.463523
 C    4.000545    2.715284   -1.364146
 H   -1.177324   -0.911396   -1.620244
 H   -4.211179   -2.656148   -2.336387
 H   -5.087686   -3.133852   -0.117920
 H   -5.586746   -1.785894    0.935029
 H   -5.856985   -1.695391   -0.823038
 H   -1.374124    1.263445    2.491389
 H   -1.320710    3.722742    2.711805
 H   -1.800507    5.158459    0.750669
 H   -2.337761    4.116885   -1.431444
 H   -2.392597    1.654738   -1.652300
 H   -1.748548   -1.828346    2.592658
 H    0.289870   -2.862648    3.524795
 H    2.483142   -2.507983    2.449049
 H    0.607969   -0.067962   -0.526549
 H    6.432075   -0.382323   -1.484275
 H    2.573700    1.011683   -0.241845
 H    3.723856   -3.039960    0.539082
 H    5.909897   -2.623274   -0.548137
 H    3.779942    2.949833   -0.320528
 H    4.482858    3.566128   -1.835307
 H    3.068866    2.487183   -1.887097
