44 
4djw_ligand_xtb.xyz
 O   -0.402287    1.692297   -1.579486
 C   -1.200201    1.672363   -0.674735
 C   -1.377744    0.577109    0.387289
 N   -2.400163    1.157273    1.230989
 C   -2.906801    2.312017    0.726530
 N   -2.107699    2.641355   -0.388786
 N   -3.886363    2.929273    1.221437
 C   -2.247399    3.851373   -1.156467
 C   -1.860245   -0.734723   -0.206337
 C   -2.525194   -0.772166   -1.424196
 C   -3.004932   -1.972710   -1.919167
 C   -2.834454   -3.141411   -1.198058
 C   -2.182423   -3.107022    0.023132
 C   -1.699000   -1.909802    0.518332
 C   -0.043481    0.418987    1.089290
 C    0.160497    0.873871    2.383724
 C    1.407049    0.733954    2.970889
 C    2.451271    0.159164    2.271832
 C    2.261870   -0.283439    0.963918
 C    1.004791   -0.152812    0.383897
 C    5.462915   -1.996351   -1.129778
 N    5.300437   -2.286625    0.150008
 C    4.284581   -1.741838    0.790834
 C    3.368120   -0.870925    0.199445
 C    3.548251   -0.581917   -1.152742
 C    4.611000   -1.154066   -1.829033
 H   -2.939246    0.607036    1.876232
 H   -4.130051    3.795627    0.758876
 H   -3.237893    3.904475   -1.614484
 H   -1.487343    3.831232   -1.936330
 H   -2.094482    4.725549   -0.520468
 H   -2.660495    0.133907   -1.996155
 H   -3.513937   -1.992652   -2.871246
 H   -3.209025   -4.076798   -1.586058
 H   -2.048923   -4.014827    0.592410
 H   -1.187214   -1.883871    1.469590
 H   -0.649644    1.336240    2.927032
 H    1.564105    1.085116    3.980069
 H    3.426053    0.075343    2.728772
 H    0.834351   -0.502268   -0.622909
 H    6.313765   -2.461536   -1.610008
 H    4.183916   -2.026840    1.830538
 H    2.873903    0.097015   -1.654719
 H    4.779367   -0.945978   -2.874502
