44 
4djw_ligand_aiqm1.xyz
 O   -0.498456    1.894891   -1.556698
 C   -1.268126    1.779509   -0.631048
 C   -1.357484    0.612030    0.387557
 N   -2.376024    1.127874    1.308633
 C   -2.980608    2.274748    0.831008
 N   -2.224366    2.691203   -0.271798
 N   -4.009607    2.818458    1.343727
 C   -2.481522    3.923490   -0.981079
 C   -1.839042   -0.700766   -0.225065
 C   -2.040658   -0.878208   -1.595420
 C   -2.517304   -2.096440   -2.079852
 C   -2.801925   -3.140769   -1.205763
 C   -2.600379   -2.968784    0.160949
 C   -2.122713   -1.756600    0.647335
 C    0.010850    0.456721    1.053935
 C    0.252636    0.954272    2.337643
 C    1.519619    0.822043    2.904572
 C    2.547941    0.205011    2.199112
 C    2.319699   -0.285138    0.907376
 C    1.047149   -0.158191    0.351216
 C    5.498016   -2.116471   -1.177108
 N    5.347276   -2.375182    0.125489
 C    4.328903   -1.780581    0.752751
 C    3.418208   -0.917216    0.137884
 C    3.594606   -0.669333   -1.225768
 C    4.651606   -1.276318   -1.894108
 H   -2.970009    0.480376    1.805893
 H   -4.268980    3.664202    0.846985
 H   -3.471391    3.903359   -1.438972
 H   -1.720940    4.017246   -1.751541
 H   -2.420913    4.768556   -0.296464
 H   -1.815461   -0.079215   -2.289080
 H   -2.665953   -2.226315   -3.143776
 H   -3.172595   -4.082779   -1.585984
 H   -2.812455   -3.777066    0.847860
 H   -1.953692   -1.627042    1.710243
 H   -0.540150    1.449056    2.880940
 H    1.707556    1.209763    3.897630
 H    3.535336    0.123439    2.636776
 H    0.863407   -0.537882   -0.647065
 H    6.332954   -2.605676   -1.663780
 H    4.218810   -2.015703    1.806859
 H    2.916572   -0.003225   -1.744053
 H    4.819205   -1.101344   -2.948551
