46 
4djy_ligand_xtb.xyz
 C   -2.535380   -0.292647   -0.733519
 N   -2.759321    0.091030    0.638272
 C   -3.521538    1.224327    0.745849
 N   -3.698258    1.710445   -0.544240
 C   -3.169840    0.889968   -1.484786
 C   -3.267574   -1.571001   -1.142019
 O   -3.214151    1.052561   -2.679856
 C   -1.061939   -0.416489   -1.080341
 C   -0.092968   -0.398650   -0.090296
 C    1.255792   -0.533550   -0.408401
 C    1.625623   -0.680757   -1.741701
 C    0.660799   -0.688318   -2.731812
 C   -0.677916   -0.559949   -2.408760
 N   -4.004270    1.819197    1.748183
 C   -4.403698    2.932353   -0.826328
 C   -4.476461   -2.042788   -0.394476
 C   -3.186449   -2.800463   -0.290231
 C    2.267729   -0.527663    0.655388
 C    3.477302    0.142114    0.506023
 C    4.406874    0.116643    1.544387
 C    4.069156   -0.588239    2.704671
 C    2.056526   -1.205264    1.858419
 C    5.647739    0.783982    1.436392
 N    2.927858   -1.231140    2.849514
 C    6.706586    1.348345    1.349066
 C    7.976380    2.026698    1.243965
 H   -2.689258   -0.573330    1.389648
 H   -3.265504   -1.705478   -2.215540
 H   -0.374674   -0.250305    0.941245
 H    2.667496   -0.803319   -1.998981
 H    0.952897   -0.796833   -3.765672
 H   -1.422767   -0.541693   -3.187684
 H   -3.811308    1.377019    2.638990
 H   -3.849605    3.782899   -0.428809
 H   -5.385115    2.903336   -0.354368
 H   -4.498961    3.017100   -1.907290
 H   -4.813101   -1.474475    0.460335
 H   -5.285244   -2.477895   -0.960861
 H   -3.106915   -3.757102   -0.782658
 H   -2.630507   -2.752299    0.634483
 H    3.692360    0.695826   -0.397062
 H    4.751685   -0.630545    3.543136
 H    1.147907   -1.770107    2.022428
 H    8.534656    1.924299    2.174260
 H    8.561104    1.597119    0.430382
 H    7.816552    3.085637    1.040556
