46 
4djy_ligand_aiqm1.xyz
 C   -2.526869   -0.336808   -0.748345
 N   -2.741448    0.013099    0.656022
 C   -3.494437    1.166360    0.797606
 N   -3.615137    1.719543   -0.474229
 C   -3.104940    0.918490   -1.453714
 C   -3.334243   -1.548021   -1.198474
 O   -3.133385    1.136999   -2.642009
 C   -1.044619   -0.513104   -1.084656
 C   -0.069756   -0.488640   -0.088532
 C    1.287205   -0.633162   -0.398434
 C    1.661909   -0.817544   -1.732429
 C    0.693342   -0.852795   -2.730855
 C   -0.652477   -0.700243   -2.414920
 N   -4.014019    1.723570    1.817196
 C   -4.292636    2.980538   -0.712146
 C   -4.640189   -1.894075   -0.543130
 C   -3.433829   -2.770888   -0.332803
 C    2.312736   -0.580815    0.673095
 C    3.505798    0.123624    0.508354
 C    4.439616    0.151235    1.547911
 C    4.131058   -0.543231    2.724571
 C    2.120824   -1.233875    1.894829
 C    5.674483    0.863947    1.426237
 N    2.998463   -1.225359    2.901282
 C    6.718849    1.467323    1.324678
 C    7.979988    2.196408    1.204921
 H   -2.837047   -0.709355    1.349089
 H   -3.275571   -1.717889   -2.263797
 H   -0.352521   -0.328319    0.943425
 H    2.708642   -0.940396   -1.983772
 H    0.990845   -0.993411   -3.762097
 H   -1.392551   -0.697954   -3.202868
 H   -3.822837    1.199731    2.666566
 H   -3.798117    3.770907   -0.151265
 H   -5.326847    2.913930   -0.377264
 H   -4.245468    3.174748   -1.781087
 H   -4.972304   -1.274364    0.281199
 H   -5.428741   -2.272582   -1.175166
 H   -3.414126   -3.737269   -0.812099
 H   -2.940222   -2.735444    0.630468
 H    3.705437    0.658849   -0.411867
 H    4.831746   -0.541526    3.549361
 H    1.213863   -1.804639    2.061378
 H    8.553777    2.125086    2.128617
 H    8.582188    1.788371    0.393351
 H    7.793866    3.249551    0.995700
