37 
4dli_ligand_dft.xyz
 N    0.575245    0.739311   -0.147418
 C    0.789208   -0.597972   -0.063407
 N   -0.127607   -1.537535   -0.019497
 C   -1.428673   -1.124195   -0.025710
 C   -1.777351    0.247136   -0.074212
 C   -0.673320    1.160347   -0.159541
 N   -4.790777   -2.680650    0.066016
 C    4.895040   -1.818207    0.034818
 C    4.569759   -0.465253   -0.015084
 C    3.880211   -2.772880    0.051625
 C    3.237889   -0.067437   -0.048837
 C    2.548628   -2.377675    0.019095
 C   -4.119982   -0.353149    0.031201
 C   -3.142230    0.605068   -0.030709
 C   -2.444817   -2.097476    0.035903
 C    1.014907    3.844756    0.724040
 C    0.036444    4.807061    0.104675
 N   -0.885341    2.507645   -0.240741
 C   -3.778910   -1.732348    0.059007
 C    2.216373   -1.020796   -0.031695
 C    0.194493    3.421963   -0.456928
 H   -5.670640   -2.384394    0.462561
 H   -4.520865   -3.604466    0.371434
 H    5.935879   -2.128464    0.060624
 H    5.356761    0.283461   -0.027946
 H    4.128154   -3.829757    0.090228
 H    2.969499    0.982543   -0.088129
 H    1.747796   -3.108742    0.032373
 H   -5.167080   -0.063597    0.058113
 H   -3.441592    1.649687   -0.024552
 H   -2.143684   -3.140200    0.068013
 H    0.754742    3.402956    1.679616
 H    2.076301    4.004556    0.566107
 H    0.417636    5.637501   -0.480835
 H   -0.873266    5.021553    0.658115
 H   -1.793910    2.810602   -0.554470
 H    0.717621    3.311719   -1.405210
