83 
4drk_ligand_ani-2x.xyz
 O   -1.674067    4.539514    0.230317
 C   -1.135896    4.057612    1.197929
 O   -1.674793    3.133874    2.000021
 C    0.268991    4.401286    1.683273
 O    1.058957    5.021271    0.701650
 C    1.516795    4.246834   -0.333615
 C    1.117680    2.931800   -0.560320
 C    2.433774    4.862283   -1.188664
 C    2.940303    4.159719   -2.271709
 C    2.536734    2.847414   -2.508727
 C    1.623781    2.231555   -1.655923
 C    1.196387    0.798361   -1.880583
 C    1.700811   -0.154332   -0.792113
 C    3.231195   -0.153853   -0.672007
 C    3.752421   -1.147123    0.340245
 C    3.974398   -0.786011    1.660396
 C    4.416251   -1.721501    2.599237
 C    4.647748   -3.037969    2.230598
 O    5.075714   -4.014493    3.068360
 C    5.300132   -3.659106    4.415140
 C    4.431602   -3.420138    0.884084
 O    4.683197   -4.721097    0.591413
 C    4.485197   -5.132578   -0.742073
 C    3.990256   -2.476657   -0.034047
 O   -0.252141    0.782092   -1.884973
 C   -0.829341   -0.290740   -2.449194
 O   -0.226457   -1.171895   -3.019081
 C   -2.352005   -0.314664   -2.342726
 N   -2.929746    0.764433   -1.556382
 C   -2.998249    2.085624   -2.195396
 C   -3.697177    1.991552   -3.540507
 C   -2.997498    0.965657   -4.425504
 C   -2.996855   -0.391835   -3.732674
 C   -3.015553    0.724054   -0.207061
 O   -3.449072    1.662867    0.467205
 C   -2.574714   -0.578349    0.501255
 O   -1.456173   -1.006029    0.295721
 C   -3.517191   -1.250990    1.503766
 C   -3.206327   -2.751619    1.525396
 C   -4.965473   -1.023077    1.070584
 C   -3.226240   -0.597748    2.873601
 C   -4.068651   -1.126816    4.033472
 H   -2.501030    2.811757    1.577692
 H    0.187645    5.119197    2.504543
 H    0.738160    3.490038    2.075181
 H    0.398651    2.441152    0.095342
 H    2.731585    5.886949   -0.983770
 H    3.652744    4.637726   -2.939327
 H    2.929617    2.302466   -3.364829
 H    1.538745    0.470560   -2.867145
 H    1.345148   -1.164401   -1.023399
 H    1.247739    0.134492    0.162501
 H    3.662116   -0.379925   -1.658123
 H    3.566148    0.857178   -0.404083
 H    3.813143    0.240275    1.983067
 H    4.579345   -1.401912    3.622713
 H    6.078983   -2.889736    4.502887
 H    5.633419   -4.569745    4.914412
 H    4.380118   -3.297291    4.893569
 H    5.134527   -4.579550   -1.433380
 H    3.438324   -5.007969   -1.048519
 H    4.745327   -6.191650   -0.772148
 H    3.830914   -2.769221   -1.067630
 H   -2.577186   -1.257139   -1.837869
 H   -3.534795    2.740827   -1.507424
 H   -1.977538    2.473947   -2.310748
 H   -3.709424    2.980309   -4.014496
 H   -4.741700    1.695132   -3.380935
 H   -3.494512    0.890258   -5.398689
 H   -1.962389    1.282049   -4.620489
 H   -4.028587   -0.737326   -3.602351
 H   -2.462803   -1.145892   -4.319995
 H   -3.362026   -3.187727    0.532759
 H   -3.867311   -3.273673    2.224856
 H   -2.169060   -2.927936    1.820143
 H   -5.234202    0.033957    1.128540
 H   -5.655223   -1.593723    1.701949
 H   -5.106251   -1.360585    0.038320
 H   -2.160778   -0.743539    3.100316
 H   -3.376477    0.485062    2.772029
 H   -5.138292   -0.966024    3.863024
 H   -3.804230   -0.610298    4.961829
 H   -3.907884   -2.197355    4.199095
