91 
4drm_ligand_ani-2x.xyz
 C    2.360227   -2.687545    2.991228
 C    2.477963   -1.186894    3.264989
 C    3.418999   -0.474657    2.275237
 C    4.900436   -0.643408    2.659609
 C    5.290863    0.186681    3.886583
 C    4.953477    1.663614    3.676381
 C    3.473694    1.834124    3.337640
 C    3.041193    1.014390    2.110862
 O    1.635208    1.111557    1.931708
 C    3.623081    1.626432    0.819670
 O    3.599411    2.836428    0.665799
 C    4.132351    0.748014   -0.348881
 O    5.277908    0.328835   -0.377533
 N    3.219086    0.516449   -1.332590
 C    3.546049   -0.518843   -2.316272
 C    3.027893   -0.121581   -3.689666
 C    1.534150    0.182591   -3.628920
 C    1.275773    1.287826   -2.609268
 C    1.824182    0.904905   -1.224312
 C    0.965222   -0.167216   -0.550184
 O    1.300043   -1.303775   -0.309623
 O   -0.241275    0.346340   -0.267963
 C   -1.098094   -0.354160    0.662208
 C   -2.088483   -1.211291   -0.124408
 C   -2.978604   -0.392406   -1.066537
 C   -3.977638   -1.240711   -1.814220
 C   -3.598929   -1.904481   -2.989561
 C   -5.269422   -1.421948   -1.343756
 C   -6.173724   -2.246869   -2.017254
 C   -5.799400   -2.904926   -3.178924
 O   -6.604232   -3.723784   -3.900180
 C   -7.919689   -3.917722   -3.428497
 C   -4.484586   -2.726159   -3.674141
 O   -4.188522   -3.395674   -4.816873
 C   -2.891789   -3.231374   -5.344009
 C   -1.750639    0.695173    1.545160
 C   -1.541039    2.051480    1.285401
 C   -2.538169    0.320777    2.631852
 C   -3.076428    1.294196    3.469743
 C   -2.823336    2.640146    3.244577
 C   -2.031872    3.015343    2.159222
 O   -1.773892    4.359135    2.031304
 C   -0.883528    4.776517    1.025842
 C    0.564327    4.333212    1.233129
 O    1.266367    4.473811    0.116492
 O    1.024340    3.896846    2.270644
 H    1.668806   -3.163517    3.694054
 H    1.981256   -2.857596    1.976528
 H    3.325170   -3.202399    3.080620
 H    1.487693   -0.726404    3.181013
 H    2.812822   -1.020494    4.297673
 H    3.251384   -0.949995    1.303489
 H    5.099879   -1.707172    2.846893
 H    5.524189   -0.347343    1.806751
 H    4.756890   -0.184563    4.772719
 H    6.359827    0.061874    4.096070
 H    5.199734    2.247190    4.570767
 H    5.562349    2.071952    2.857633
 H    3.224842    2.882992    3.168066
 H    2.851695    1.496534    4.180271
 H    1.364990    2.026325    2.131295
 H    3.106201   -1.470823   -1.990899
 H    4.632212   -0.616836   -2.305692
 H    3.240991   -0.921237   -4.409345
 H    3.571395    0.770732   -4.026816
 H    1.162122    0.486932   -4.612920
 H    0.977328   -0.721540   -3.342994
 H    1.789161    2.204425   -2.923585
 H    0.208409    1.521477   -2.530090
 H    1.766834    1.792846   -0.592042
 H   -0.465140   -1.007395    1.274107
 H   -2.704318   -1.766247    0.592114
 H   -1.515980   -1.954010   -0.692063
 H   -2.336335    0.147184   -1.773836
 H   -3.497966    0.372640   -0.473885
 H   -2.591811   -1.764840   -3.372420
 H   -5.599173   -0.914502   -0.440009
 H   -7.175792   -2.363330   -1.619147
 H   -8.479055   -2.973006   -3.399237
 H   -7.924782   -4.371137   -2.428187
 H   -8.395194   -4.597813   -4.136300
 H   -2.857037   -3.834217   -6.252602
 H   -2.126147   -3.588527   -4.642916
 H   -2.692015   -2.181977   -5.597151
 H   -0.982789    2.324365    0.397731
 H   -2.728167   -0.732359    2.831481
 H   -3.692532    0.999355    4.315923
 H   -3.220136    3.412420    3.897894
 H   -1.206093    4.452403    0.028537
 H   -0.906156    5.869458    1.041849
 H    2.171384    4.128877    0.276546
