91 
4drn_ligand_xtb.xyz
 C    2.250393    3.109221    1.582648
 C    2.609042    2.914594    0.115606
 C    4.120556    2.740981   -0.093804
 C    4.829078    4.092779   -0.197789
 C    6.338246    3.911568   -0.317827
 C    6.661784    3.074471   -1.548893
 C    5.983185    1.712737   -1.455162
 C    4.448390    1.896835   -1.336610
 O    3.962070    2.493947   -2.529326
 C    3.869235    0.491120   -1.272861
 O    3.462655   -0.026821   -2.293111
 C    4.000672   -0.280886    0.029090
 O    5.061784   -0.244758    0.635948
 N    2.961562   -1.036782    0.414286
 C    3.106103   -1.878111    1.591023
 C    2.836788   -3.334893    1.224516
 C    1.446861   -3.466236    0.609119
 C    1.337774   -2.547902   -0.604458
 C    1.658915   -1.101024   -0.209849
 C    0.605605   -0.503599    0.727946
 O    0.865074    0.193131    1.673887
 O   -0.620470   -0.831851    0.346874
 C   -1.700461   -0.167940    1.034758
 C   -2.982352   -0.938593    0.731656
 C   -2.936850   -2.363147    1.296435
 C   -4.193235   -3.109126    0.947373
 C   -5.314486   -3.009115    1.768590
 C   -4.275021   -3.866261   -0.204145
 C   -5.450751   -4.524517   -0.539226
 C   -6.566084   -4.432129    0.273385
 O   -7.764837   -5.037540    0.040279
 C   -7.899408   -5.821776   -1.117224
 C   -6.494355   -3.656931    1.452649
 O   -7.634605   -3.618510    2.197903
 C   -7.631939   -2.864949    3.383048
 C   -1.743899    1.262364    0.556269
 C   -1.731704    1.504817   -0.808188
 C   -1.693107    2.326671    1.444377
 C   -1.618978    3.621050    0.961097
 C   -1.575745    3.866072   -0.399678
 C   -1.636447    2.801409   -1.291963
 O   -1.631691    2.968925   -2.660259
 C   -0.566531    3.726743   -3.174803
 C    0.783738    3.100025   -2.833839
 O    0.918992    1.969506   -2.441800
 O    1.777346    3.950826   -3.006897
 H    1.179605    3.268697    1.682827
 H    2.510619    2.223327    2.155408
 H    2.771763    3.966490    2.002110
 H    2.076246    2.035901   -0.256279
 H    2.259616    3.778057   -0.453964
 H    4.529541    2.196119    0.762161
 H    4.457403    4.624226   -1.076543
 H    4.594029    4.689276    0.684607
 H    6.824427    4.886207   -0.391223
 H    6.717652    3.408823    0.574414
 H    7.739615    2.929311   -1.639075
 H    6.308473    3.591140   -2.443354
 H    6.339255    1.168140   -0.581740
 H    6.197533    1.122442   -2.349311
 H    3.666904    1.745457   -3.082917
 H    2.403887   -1.540706    2.358027
 H    4.124339   -1.745966    1.960042
 H    2.921043   -3.951653    2.119930
 H    3.587877   -3.670341    0.506493
 H    0.692268   -3.188036    1.348826
 H    1.261409   -4.499587    0.311225
 H    0.335964   -2.582671   -1.030758
 H    2.051289   -2.859722   -1.369505
 H    1.632267   -0.474306   -1.106935
 H   -1.483834   -0.191196    2.110687
 H   -3.822480   -0.392086    1.162701
 H   -3.122744   -0.981499   -0.348539
 H   -2.071904   -2.878744    0.876360
 H   -2.817844   -2.316358    2.381330
 H   -5.244433   -2.415135    2.666495
 H   -3.417470   -3.954752   -0.854161
 H   -5.480568   -5.110593   -1.443734
 H   -7.749283   -5.229808   -2.026606
 H   -7.202624   -6.667089   -1.116378
 H   -8.920759   -6.198828   -1.099136
 H   -6.893679   -3.240776    4.099863
 H   -8.629731   -2.977141    3.804288
 H   -7.440156   -1.804189    3.187752
 H   -1.746536    0.691060   -1.515285
 H   -1.686832    2.142691    2.507887
 H   -1.575479    4.450245    1.651733
 H   -1.498386    4.880702   -0.760395
 H   -0.688935    3.722888   -4.261778
 H   -0.570598    4.767711   -2.828316
 H    2.648760    3.516174   -2.771185
