91 
4drp_ligand_aiqm1.xyz
 C    1.085537   -4.133035   -2.094705
 C    1.563017   -2.741813   -2.490029
 C    2.969850   -2.425496   -1.972973
 C    4.048211   -3.225123   -2.707356
 C    5.439798   -2.930867   -2.155635
 C    5.758669   -1.442224   -2.245255
 C    4.693496   -0.636013   -1.510568
 C    3.310292   -0.917999   -2.105732
 O    3.325831   -0.524326   -3.468188
 C    2.246933   -0.083866   -1.379527
 O    1.404342    0.552987   -1.983232
 C    2.211168   -0.115655    0.155592
 O    1.844558   -1.143038    0.708589
 N    2.619393    0.994547    0.822772
 C    2.816452    2.276370    0.125723
 C    3.740415    3.182418    0.924932
 C    3.222643    3.364034    2.345137
 C    3.122446    2.005027    3.026167
 C    2.230041    1.050998    2.230349
 C    0.748859    1.380994    2.452943
 O    0.269174    1.445701    3.556261
 O    0.075321    1.536500    1.314698
 C   -1.377885    1.592734    1.370462
 C   -1.909102    0.251368    0.885884
 C   -1.531732   -0.894013    1.829736
 C   -2.041122   -2.229183    1.356882
 C   -3.401447   -2.550473    1.477175
 C   -1.181486   -3.153685    0.787477
 C   -1.661478   -4.395283    0.347155
 C   -3.004598   -4.710152    0.470014
 O   -3.580732   -5.881408    0.080279
 C   -2.714767   -6.862096   -0.454109
 C   -3.885549   -3.771535    1.041280
 O   -5.184952   -4.164020    1.118257
 C   -6.087811   -3.244977    1.701542
 C   -1.798024    2.754933    0.508797
 C   -2.698961    3.684237    1.011739
 C   -1.304561    2.899541   -0.793195
 C   -1.738422    3.964936   -1.570157
 C   -2.656570    4.898559   -1.081849
 C   -3.134757    4.751234    0.220111
 O   -4.028523    5.595525    0.816785
 C   -4.489047    6.675792    0.047468
 C   -5.465554    7.472220    0.880258
 O   -5.816391    7.244964    2.001022
 O   -5.907090    8.521246    0.150426
 H    1.105813   -4.249706   -1.009880
 H    1.702054   -4.923574   -2.528877
 H    0.059109   -4.291803   -2.426069
 H    1.551895   -2.626482   -3.576215
 H    0.855879   -2.006976   -2.092988
 H    3.018113   -2.666210   -0.904536
 H    4.006881   -2.952979   -3.765854
 H    3.830768   -4.292347   -2.636181
 H    6.188580   -3.512370   -2.695050
 H    5.486913   -3.247405   -1.108085
 H    6.742325   -1.232333   -1.820276
 H    5.774791   -1.136437   -3.293133
 H    4.904269    0.436938   -1.572440
 H    4.680679   -0.914841   -0.452620
 H    2.488902   -0.072513   -3.633170
 H    3.253181    2.068731   -0.850040
 H    1.845095    2.747186   -0.026977
 H    4.743031    2.744858    0.951902
 H    3.815300    4.141241    0.411431
 H    2.238953    3.839788    2.320859
 H    3.883935    4.019927    2.911624
 H    2.714735    2.089091    4.031780
 H    4.115965    1.557652    3.096641
 H    2.342450    0.040337    2.624512
 H   -1.678008    1.765184    2.407695
 H   -2.996749    0.323350    0.809989
 H   -1.523806    0.059928   -0.120758
 H   -0.445022   -0.944253    1.927177
 H   -1.929153   -0.671981    2.826475
 H   -4.070972   -1.826807    1.922814
 H   -0.130088   -2.903719    0.691671
 H   -0.977396   -5.114789   -0.083904
 H   -1.943550   -7.149458    0.265812
 H   -3.336360   -7.723766   -0.678878
 H   -2.234826   -6.514049   -1.372967
 H   -6.138124   -2.315768    1.127069
 H   -5.809305   -3.011555    2.732722
 H   -7.059870   -3.728743    1.690437
 H   -3.089357    3.605748    2.019510
 H   -0.583016    2.190293   -1.183567
 H   -1.363749    4.079020   -2.579133
 H   -2.979801    5.715500   -1.711928
 H   -3.673413    7.341591   -0.254509
 H   -5.005444    6.342954   -0.859312
 H   -6.526998    9.001463    0.713925
