24 
4dsy_ligand_xtb.xyz
 C  -74.055402   34.787500  -44.924531
 C  -74.336038   34.912540  -46.272424
 C  -73.338986   34.713699  -47.212992
 C  -72.058765   34.383974  -46.799772
 C  -71.775607   34.249933  -45.453421
 C  -72.771332   34.452785  -44.500226
 C  -72.467212   34.317987  -43.070910
 C  -71.627811   33.317050  -42.593235
 C  -73.003562   35.195700  -42.123422
 N  -72.745274   35.131060  -40.831894
 C  -71.948598   34.176188  -40.389424
 C  -71.367276   33.225806  -41.228251
 C  -70.458013   32.142091  -40.752971
 O  -70.579442   31.778501  -39.464784
 O  -69.659218   31.608409  -41.471420
 H  -74.840477   34.926549  -44.195688
 H  -75.336801   35.165121  -46.590378
 H  -73.559361   34.814832  -48.265132
 H  -71.277640   34.230656  -47.529513
 H  -70.772491   34.007486  -45.134895
 H  -71.185407   32.588583  -43.256837
 H  -73.655586   36.004884  -42.424478
 H  -71.756674   34.205883  -39.322297
 H  -71.281228   32.255582  -39.002607
