24 
4dsy_ligand_aiqm1.xyz
 C  -74.054945   34.769842  -44.923430
 C  -74.356959   34.895002  -46.276865
 C  -73.364203   34.712988  -47.235907
 C  -72.068111   34.399712  -46.834672
 C  -71.766593   34.267515  -45.482192
 C  -72.756079   34.454309  -44.510925
 C  -72.439593   34.321390  -43.067237
 C  -71.601180   33.321871  -42.580351
 C  -72.982011   35.206495  -42.126067
 N  -72.738570   35.156851  -40.812534
 C  -71.942389   34.179947  -40.373927
 C  -71.356519   33.232175  -41.211602
 C  -70.463500   32.136417  -40.716511
 O  -70.598439   31.783818  -39.417413
 O  -69.668002   31.572027  -41.414758
 H  -74.835571   34.899132  -44.183062
 H  -75.367928   35.133155  -46.579248
 H  -73.598926   34.812827  -48.286726
 H  -71.289806   34.257158  -47.572111
 H  -70.755095   34.030622  -45.175356
 H  -71.136033   32.600808  -43.240167
 H  -73.628671   36.012089  -42.456654
 H  -71.743556   34.190322  -39.306965
 H  -71.345523   32.246328  -39.026825
