27 
4dt2_ligand_dft.xyz
 C    1.718760   -1.213802   -0.458485
 C    2.032452    0.230560    0.018510
 C    2.931518    1.000275   -0.934632
 C    2.569142    0.238171    1.447422
 O    0.746937    0.915325    0.042659
 C   -0.233761   -0.020914    0.030769
 C    0.234860   -1.306367   -0.224812
 C   -0.650418   -2.370561   -0.259107
 C   -2.006653   -2.126264   -0.029721
 C   -2.451695   -0.830932    0.222596
 C   -1.576047    0.257197    0.267957
 C   -2.047062    1.661448    0.513171
 O   -2.221986    2.308649   -0.738349
 H    2.296735   -1.953729    0.104656
 H    1.960807   -1.342723   -1.521089
 H    2.485730    1.033404   -1.933020
 H    3.074481    2.027186   -0.584640
 H    3.911948    0.517143   -1.003385
 H    2.655644    1.264999    1.814903
 H    1.892706   -0.312381    2.109835
 H    3.556452   -0.234327    1.489716
 H   -0.297664   -3.378677   -0.459353
 H   -2.716475   -2.947089   -0.049984
 H   -3.509864   -0.651461    0.396465
 H   -1.302569    2.189325    1.125714
 H   -2.992043    1.634349    1.077603
 H   -2.342070    3.249325   -0.563910
