53 
4dvi_ligand_aiqm1.xyz
 C    5.581004    0.027757    1.531038
 N    3.624749   -0.707236    0.435649
 O    3.392743    1.024545    1.950767
 C    6.458029    1.221001    1.018042
 N   -4.143028    0.805163    1.271241
 O    4.481311   -2.378342   -0.915676
 C    5.944397   -1.117448    0.573338
 N   -2.740913   -0.441138   -0.564243
 O   -2.000710   -1.345638   -2.514908
 C    4.086979    0.222945    1.376186
 C    4.643932   -1.514904   -0.090623
 C    6.996801   -0.465564   -0.388710
 C    5.946418    1.593827   -0.362301
 C    7.732345    0.437874    0.627407
 C    6.266646    0.591972   -1.198345
 C   -4.120511   -0.394168   -0.789574
 C   -1.769947   -0.911940   -1.397593
 C   -6.215826    1.595169    2.200914
 C   -6.957421    1.078982    1.168148
 C   -6.260374    0.391103    0.131174
 C   -4.855750    0.284692    0.231601
 C   -4.811886    1.433524    2.210059
 C   -6.913346   -0.187385   -0.990628
 C   -6.181071   -0.834296   -1.952882
 C   -4.773277   -0.948695   -1.867230
 C   -8.452055    1.229728    1.124335
 C    0.667764   -0.846269   -1.788750
 C    1.987675   -0.790076   -1.369176
 C    2.268121   -0.768364   -0.003133
 C    1.241487   -0.806319    0.937160
 C   -0.078342   -0.840678    0.504252
 C   -0.376883   -0.851568   -0.860576
 H    5.802299   -0.182133    2.576464
 H    6.551856    2.029115    1.739425
 H    6.366742   -1.990883    1.066852
 H   -2.483079    0.036462    0.286647
 H    7.581424   -1.193287   -0.946167
 H    5.368737    2.476988   -0.587787
 H    8.178166   -0.113559    1.458962
 H    8.481475    1.072151    0.153645
 H    6.003552    0.500778   -2.241425
 H   -6.695486    2.128004    3.013890
 H   -4.233396    1.844766    3.030435
 H   -7.988020   -0.112714   -1.079442
 H   -6.687256   -1.271370   -2.805272
 H   -4.216270   -1.457501   -2.638511
 H   -8.766599    1.767445    0.229005
 H   -8.803252    1.781155    1.996729
 H   -8.945069    0.256808    1.111905
 H    0.417458   -0.891207   -2.840003
 H    2.798378   -0.799335   -2.087004
 H    1.471662   -0.780786    1.994146
 H   -0.872684   -0.889454    1.240542
