17 
4e3f_ligand_aiqm1.xyz
 C   16.881229    2.118058   15.966811
 O   17.722626    1.328049   15.640410
 O   16.186425    1.936565   17.110430
 C   16.560187    3.353988   15.170590
 C   15.272956    3.900619   15.085026
 C   14.982003    5.001762   14.287179
 C   16.004430    5.595538   13.560112
 C   17.298299    5.106185   13.636688
 C   17.574096    3.994341   14.436521
 O   14.286225    3.303759   15.828078
 O   18.839062    3.530720   14.557596
 H   15.431164    2.536219   17.140401
 H   13.972343    5.388620   14.238940
 H   15.790759    6.450924   12.935377
 H   18.096279    5.576572   13.075905
 H   13.450469    3.738406   15.646337
 H   19.409447    4.061175   13.996199
