16 
4e3g_ligand_ani-2x.xyz
 C   16.480048    2.102122   15.247066
 O   15.223164    1.816390   15.656586
 O   17.345836    1.271740   15.341575
 C   16.715752    3.470842   14.688739
 C   18.023974    3.961333   14.705912
 C   18.321246    5.214231   14.199243
 C   17.300965    5.988371   13.642343
 C   15.993889    5.500527   13.590229
 C   15.708494    4.246169   14.114474
 O   17.645684    7.210995   13.158182
 H   14.677501    2.614417   15.662444
 H   18.803158    3.331434   15.125726
 H   19.332129    5.609488   14.218114
 H   15.199967    6.101484   13.148979
 H   14.689759    3.868887   14.031841
 H   16.859933    7.642171   12.799446
