14 
4e3h_ligand_xtb.xyz
 C   14.646558    4.411374   17.606506
 C   14.803754    3.146417   18.130422
 C   15.325029    2.120758   17.346567
 O   15.463138    0.884379   17.906159
 C   15.685178    2.383298   16.032692
 C   15.527122    3.653929   15.506383
 C   15.007480    4.675599   16.288096
 O   14.834774    5.941620   15.810546
 H   14.243934    5.212908   18.204286
 H   14.527800    2.930370   19.149813
 H   15.832644    0.273974   17.257412
 H   16.091385    1.593573   15.414345
 H   15.811078    3.848369   14.480344
 H   15.123326    5.983931   14.891328
