22 
4e5g_ligand_ani-2x.xyz
 O  -12.810140  -18.675355  -22.766768
 C  -12.836711  -18.091682  -23.957133
 C  -13.985647  -18.615749  -24.804591
 O  -14.729620  -19.433015  -24.314819
 O  -14.163364  -18.182107  -26.051664
 C  -11.951003  -17.158508  -24.371091
 C  -10.855958  -16.653079  -23.534220
 C   -9.840926  -15.735591  -24.174626
 C   -9.105143  -14.901087  -23.331319
 C   -8.158400  -14.029929  -23.855120
 C   -7.926850  -13.996974  -25.228452
 C   -8.643109  -14.841225  -26.072721
 C   -9.596495  -15.707851  -25.548888
 O  -10.753153  -16.922559  -22.352700
 H  -13.573094  -19.290517  -22.759672
 H  -13.474535  -17.557840  -26.316990
 H  -12.061806  -16.713686  -25.351880
 H   -9.289897  -14.949125  -22.262173
 H   -7.596967  -13.377955  -23.190744
 H   -7.185331  -13.317264  -25.639691
 H   -8.465190  -14.824598  -27.144751
 H  -10.133263  -16.379105  -26.214786
