24 
4ef6_ligand_aiqm1.xyz
 C   14.056557   10.195126   -4.001393
 C   15.150675   11.027422   -3.972073
 C   15.615977   11.409782   -2.703751
 C   13.447221    9.746836   -2.838413
 C   13.900167   10.102230   -1.589161
 C   15.016813   10.960477   -1.527013
 C   15.586859   11.350677   -0.185257
 C   16.652829   10.354595    0.312371
 C   17.829687   10.258667   -0.636073
 O   18.619613   11.365920   -0.696594
 C   12.213164    9.115916   -4.559001
 O   18.079119    9.313170   -1.324912
 O   13.425940    9.643415   -5.088545
 O   12.414802    8.902137   -3.162937
 H   15.639344   11.358071   -4.876018
 H   16.482514   12.056040   -2.642233
 H   13.423610    9.725675   -0.691889
 H   14.789663   11.396202    0.557958
 H   16.021786   12.354244   -0.245753
 H   16.221656    9.358806    0.381738
 H   17.008869   10.651312    1.303649
 H   18.320884   12.014424   -0.052981
 H   11.986753    8.170108   -5.041162
 H   11.411799    9.850646   -4.695657
