28 
4egh_ligand_dft.xyz
 O   -0.741436    2.193740    0.164881
 C   -0.507585    1.000149    0.303052
 N   -1.491496    0.099845    0.651094
 C   -1.506333   -1.298167    0.229125
 C   -2.451945   -1.470437   -0.960312
 O   -3.745092   -0.989155   -0.674024
 C   -3.715740    0.383863   -0.330883
 C   -2.834135    0.620024    0.889907
 C    0.890702    0.481700    0.158920
 C    1.440668   -0.472810    1.021007
 C    2.765427   -0.863195    0.901012
 C    3.563423   -0.299901   -0.096703
 O    4.849239   -0.724780   -0.179228
 C    3.031402    0.665485   -0.953869
 C    1.708020    1.059423   -0.812024
 H   -1.851630   -1.916905    1.066917
 H   -0.503588   -1.621922   -0.050075
 H   -2.558674   -2.528997   -1.213017
 H   -2.031235   -0.940175   -1.831775
 H   -4.749447    0.676042   -0.129514
 H   -3.335179    0.980712   -1.175077
 H   -2.757005    1.683427    1.115893
 H   -3.256339    0.090699    1.752982
 H    0.828939   -0.900359    1.810567
 H    3.202178   -1.593643    1.573456
 H    5.297666   -0.249966   -0.889378
 H    3.654524    1.115705   -1.723585
 H    1.295146    1.831209   -1.453488
