28 
4egh_ligand_xtb.xyz
 O    2.420535   10.175103  -27.037872
 C    1.604192    9.812548  -26.209691
 N    0.754657    8.777906  -26.441472
 C   -0.007421    8.067097  -25.440692
 C    0.580556    6.657903  -25.268188
 O    0.615687    5.960437  -26.489263
 C    1.392383    6.650612  -27.445479
 C    0.835935    8.054168  -27.695695
 C    1.452411   10.521532  -24.904354
 C    0.237022   11.079614  -24.515717
 C    0.139460   11.800721  -23.343850
 C    1.261157   11.974546  -22.536463
 O    1.119509   12.680794  -21.385770
 C    2.479920   11.431678  -22.928062
 C    2.574049   10.721627  -24.109619
 H   -1.046083    7.983064  -25.781529
 H    0.021605    8.597098  -24.489625
 H   -0.037900    6.064213  -24.593157
 H    1.597500    6.741734  -24.852565
 H    1.358936    6.051051  -28.355914
 H    2.433312    6.728602  -27.096907
 H    1.487838    8.613904  -28.367206
 H   -0.169802    7.981073  -28.123197
 H   -0.632478   10.963223  -25.145798
 H   -0.794085   12.243269  -23.035244
 H    1.969129   12.748973  -20.933177
 H    3.356210   11.575504  -22.309704
 H    3.523365   10.315705  -24.424589
