27 
4eh2_ligand_xtb.xyz
 C    3.197774   -1.927487   18.216855
 C    3.446436   -2.306840   16.909996
 C    4.576773   -1.852474   16.251934
 C    5.468321   -1.018344   16.905312
 C    5.233727   -0.639141   18.214488
 C    4.094754   -1.092214   18.868297
 N    3.853034   -0.690479   20.210075
 C    3.917351    0.632620   20.533305
 N    3.752375    1.134948   21.693843
 C    3.488061    0.275076   22.731460
 C    3.306206    0.789466   24.018979
 C    3.035999   -0.061701   25.065988
 C    2.940657   -1.437521   24.858401
 C    3.117430   -1.960139   23.597651
 C    3.392157   -1.112138   22.522521
 C    3.587803   -1.666290   21.185889
 O    3.550111   -2.844705   20.904242
 H    2.319344   -2.280171   18.733022
 H    2.750876   -2.959002   16.404015
 H    4.765797   -2.151115   15.231911
 H    6.354452   -0.666607   16.398600
 H    5.936799   -0.005004   18.734988
 H    4.112284    1.306722   19.708404
 H    3.383194    1.855780   24.160097
 H    2.895825    0.337537   26.059826
 H    2.728172   -2.091710   25.690480
 H    3.050488   -3.020865   23.407821
