27 
4eh2_ligand_ani-2x.xyz
 C    3.139014   -1.834277   18.135209
 C    3.408233   -2.198205   16.820182
 C    4.619201   -1.853814   16.226531
 C    5.565411   -1.136054   16.952219
 C    5.294265   -0.751728   18.261594
 C    4.080308   -1.100558   18.851078
 N    3.795678   -0.680447   20.203423
 C    3.766695    0.666947   20.516739
 N    3.593909    1.175893   21.680594
 C    3.417768    0.284792   22.733390
 C    3.245676    0.794091   24.033657
 C    3.068247   -0.065014   25.096313
 C    3.054576   -1.457697   24.899756
 C    3.219430   -1.968878   23.630642
 C    3.400328   -1.103501   22.542469
 C    3.572944   -1.658750   21.195574
 O    3.545175   -2.842074   20.920919
 H    2.209461   -2.128019   18.611708
 H    2.668883   -2.764906   16.260171
 H    4.826390   -2.147180   15.200407
 H    6.513850   -0.862573   16.497908
 H    6.027202   -0.192526   18.838749
 H    3.899170    1.324297   19.659493
 H    3.258850    1.872040   24.165968
 H    2.937146    0.337149   26.098236
 H    2.913913   -2.122367   25.747453
 H    3.214475   -3.038440   23.438018
