27 
4eh5_ligand_aiqm1.xyz
 C   -4.070450   -1.536480  -17.636819
 C   -4.242538   -1.414282  -16.260457
 C   -5.408742   -0.849542  -15.749923
 C   -6.401765   -0.408886  -16.621283
 C   -6.228088   -0.531937  -17.997386
 C   -5.062387   -1.098220  -18.515524
 C   -4.873327   -1.223775  -19.997088
 O   -4.232053   -0.016470  -20.470245
 C   -4.007926   -0.011722  -21.795312
 O   -4.312955   -0.927343  -22.519444
 C   -3.348052    1.240859  -22.253716
 C   -3.010906    2.277313  -21.384458
 C   -2.398090    3.404022  -21.911198
 C   -2.148815    3.447239  -23.281220
 N   -2.466165    2.461245  -24.128351
 C   -3.055326    1.381717  -23.610796
 H   -3.158270   -1.968674  -18.031608
 H   -3.465405   -1.756523  -15.589441
 H   -5.542391   -0.752831  -14.680849
 H   -7.309510    0.033481  -16.231888
 H   -6.999000   -0.180681  -18.673458
 H   -5.823478   -1.337213  -20.517288
 H   -4.242180   -2.073655  -20.253208
 H   -3.228777    2.188461  -20.329658
 H   -2.116206    4.236057  -21.280173
 H   -1.671376    4.313116  -23.724421
 H   -3.313623    0.582223  -24.292887
