25 
4eh6_ligand_ani-2x.xyz
 C    3.863833   -1.959413   17.930668
 C    4.194277   -2.584257   16.732755
 C    5.193351   -2.080369   15.906144
 C    5.873872   -0.928253   16.288153
 C    5.556154   -0.293193   17.481802
 C    4.551140   -0.804149   18.309223
 N    4.273433   -0.103295   19.502584
 C    3.371940   -0.414726   20.487074
 O    2.652198   -1.400640   20.477338
 C    3.333106    0.544390   21.645101
 C    2.816259    0.073056   22.850654
 C    2.765815    0.927617   23.941892
 C    3.213847    2.234584   23.777443
 N    3.685547    2.714896   22.625351
 C    3.742450    1.878526   21.589411
 H    3.088393   -2.352203   18.575001
 H    3.655171   -3.484263   16.445965
 H    5.437862   -2.581647   14.973830
 H    6.657434   -0.518782   15.655591
 H    6.088533    0.609773   17.773276
 H    4.900212    0.662032   19.695590
 H    2.465164   -0.953773   22.904029
 H    2.381111    0.591706   24.900486
 H    3.186687    2.936647   24.608654
 H    4.104312    2.326835   20.662685
