25 
4eh6_ligand_aiqm1.xyz
 C    3.773795   -1.888759   17.865228
 C    4.129523   -2.511872   16.670576
 C    5.212440   -2.071698   15.916360
 C    5.956043   -0.986086   16.369077
 C    5.616535   -0.353899   17.558904
 C    4.527969   -0.799903   18.313926
 N    4.234582   -0.093578   19.501744
 C    3.369038   -0.437308   20.499521
 O    2.700316   -1.454754   20.505580
 C    3.313968    0.530331   21.641046
 C    2.924191    0.041950   22.886470
 C    2.877077    0.912047   23.963600
 C    3.209058    2.248624   23.750089
 N    3.553806    2.744678   22.557030
 C    3.600040    1.890243   21.531628
 H    2.934855   -2.244518   18.443161
 H    3.546486   -3.356620   16.326628
 H    5.473103   -2.566826   14.991689
 H    6.802994   -0.624953   15.801702
 H    6.201508    0.492599   17.904030
 H    4.813303    0.707152   19.680076
 H    2.663221   -1.003091   22.975083
 H    2.583758    0.573378   24.948223
 H    3.188352    2.959377   24.567313
 H    3.846139    2.334586   20.572016
