30 
4eh8_ligand_ani-2x.xyz
 C   -0.752718   -4.969832  -13.266809
 C   -1.976692   -5.074720  -13.917673
 C   -2.447822   -4.013297  -14.686241
 C   -1.688391   -2.851944  -14.798379
 C   -0.463071   -2.748156  -14.146105
 C    0.010537   -3.807829  -13.375798
 C    1.341327   -3.732524  -12.669026
 O    1.851723   -2.418201  -12.748139
 C    3.042694   -2.164991  -12.136851
 C    3.800667   -3.130940  -11.475931
 C    3.487402   -0.840625  -12.212206
 C    4.692267   -0.492524  -11.620244
 C    5.453802   -1.449781  -10.957852
 C    5.010723   -2.767961  -10.884172
 C    5.846264   -3.788147  -10.147423
 O    5.317268   -5.081696  -10.349165
 H   -0.384880   -5.800214  -12.666223
 H   -2.564758   -5.985045  -13.825639
 H   -3.404315   -4.090800  -15.196853
 H   -2.051800   -2.019536  -15.397567
 H    0.131740   -1.843525  -14.229049
 H    2.054911   -4.435265  -13.123993
 H    1.224217   -4.025554  -11.615700
 H    3.484938   -4.165996  -11.407422
 H    2.877979   -0.108897  -12.734564
 H    5.041239    0.535668  -11.676358
 H    6.398518   -1.174107  -10.494128
 H    5.863309   -3.530541   -9.075508
 H    6.885959   -3.722289  -10.505688
 H    5.867963   -5.704431   -9.861293
