50 
4ej2_ligand_dft.xyz
 N    0.838514    0.839912   -0.470668
 C    0.473739    2.109861   -0.884000
 O    1.294820    2.980579   -1.142443
 N   -0.878773    2.305412   -0.980599
 C   -1.915943    1.413660   -0.656507
 O   -3.072045    1.751910   -0.780785
 C   -1.427548    0.112687   -0.172367
 C   -0.092806   -0.101847   -0.100990
 C   -2.382203   -0.874849    0.195222
 C   -3.241096   -1.674392    0.479995
 C   -4.353687   -2.560885    0.819251
 C    2.272504    0.557785   -0.396760
 C   -5.599631   -1.770538    1.260351
 C   -6.105605   -0.795815    0.197837
 C   -7.352236   -0.030326    0.641281
 C   -7.841976    0.957568   -0.415827
 C    2.886102    0.996220    0.938177
 O    2.737407    2.367518    1.218173
 C    4.364147    0.613780    0.919000
 O    4.986251    0.900573    2.148453
 C    4.529547   -0.874673    0.648462
 O    5.883280   -1.226191    0.503216
 C    3.806965   -1.230102   -0.649496
 O    2.435112   -0.821542   -0.565112
 C    3.777819   -2.718757   -0.946418
 O    3.133890   -2.990019   -2.166467
 H   -1.164820    3.228329   -1.283769
 H    0.320877   -1.043117    0.234803
 H   -4.601264   -3.177505   -0.055016
 H   -4.046290   -3.251674    1.613399
 H    2.740739    1.108806   -1.223674
 H   -5.364009   -1.221762    2.180586
 H   -6.386819   -2.492312    1.513216
 H   -6.328299   -1.348993   -0.726354
 H   -5.309167   -0.083375   -0.051979
 H   -8.153723   -0.742287    0.881665
 H   -7.131074    0.509210    1.571965
 H   -8.095941    0.440422   -1.348425
 H   -7.066654    1.696252   -0.647163
 H   -8.733372    1.496052   -0.077513
 H    2.386388    0.439626    1.742371
 H    2.556505    2.845209    0.390770
 H    4.857077    1.167449    0.100145
 H    4.773654    1.821392    2.356462
 H    4.061884   -1.428965    1.479382
 H    6.349093   -0.837763    1.256390
 H    4.285368   -0.706509   -1.490314
 H    4.803724   -3.082606   -1.028348
 H    3.294861   -3.238009   -0.102765
 H    2.254803   -2.594030   -2.110507
