50 
4ej2_ligand_ani-2x.xyz
 N   -1.327446   -1.279725    0.016807
 C   -0.860457   -2.446659    0.595610
 O   -1.603299   -3.375213    0.899360
 N    0.488050   -2.497967    0.794819
 C    1.423956   -1.473210    0.616740
 O    2.591389   -1.664748    0.893122
 C    0.835134   -0.239274    0.094903
 C   -0.490546   -0.201783   -0.188174
 C    1.709524    0.867507   -0.111308
 C    2.526792    1.745445   -0.255202
 C    3.636159    2.693511   -0.362727
 C   -2.759889   -1.229470   -0.324504
 C    4.778599    2.332099    0.605415
 C    5.273740    0.892886    0.450944
 C    6.481573    0.574829    1.331502
 C    6.954766   -0.867765    1.166411
 C   -3.634287   -0.892800    0.898161
 O   -3.795887   -1.984297    1.770833
 C   -5.038501   -0.487090    0.482371
 O   -5.751851    0.029462    1.585552
 C   -5.012496    0.571617   -0.601001
 O   -6.315809    0.855426   -1.057138
 C   -4.196143    0.043053   -1.771187
 O   -2.869607   -0.259033   -1.335415
 C   -4.040517    1.047360   -2.906188
 O   -3.280430    0.500963   -3.959253
 H    0.840288   -3.357798    1.193648
 H   -0.952340    0.688944   -0.592643
 H    4.008191    2.691126   -1.396267
 H    3.280523    3.712312   -0.162179
 H   -3.035075   -2.219149   -0.706494
 H    4.433475    2.485950    1.635876
 H    5.607646    3.032975    0.440474
 H    5.533212    0.710068   -0.602945
 H    4.458258    0.193787    0.686226
 H    7.303790    1.265044    1.093301
 H    6.219099    0.757985    2.383010
 H    7.278383   -1.060756    0.136672
 H    6.142936   -1.570421    1.395027
 H    7.795360   -1.095893    1.829782
 H   -3.171663   -0.039119    1.421978
 H   -3.094879   -2.640172    1.586911
 H   -5.552665   -1.378220    0.079184
 H   -5.727197   -0.656279    2.268518
 H   -4.517175    1.475562   -0.205593
 H   -6.837966    1.075587   -0.272949
 H   -4.670623   -0.870160   -2.166653
 H   -5.024193    1.304545   -3.306025
 H   -3.579809    1.969808   -2.512353
 H   -2.459993    0.182753   -3.557357
