50 
4ej2_ligand_aiqm1.xyz
 N   -1.403511   -1.251950    0.070076
 C   -1.033067   -2.491934    0.559133
 O   -1.849414   -3.374643    0.785720
 N    0.305301   -2.644817    0.790551
 C    1.324269   -1.689571    0.663147
 O    2.469372   -1.976419    0.921927
 C    0.829068   -0.381116    0.204269
 C   -0.486763   -0.233494   -0.069063
 C    1.766077    0.682900    0.062207
 C    2.581435    1.566828   -0.059272
 C    3.632090    2.580220   -0.174393
 C   -2.816396   -1.067291   -0.262964
 C    4.826921    2.254562    0.728704
 C    5.485252    0.919300    0.406704
 C    6.673312    0.619779    1.313170
 C    7.326085   -0.718781    0.989557
 C   -3.657663   -0.634244    0.938175
 O   -3.639151   -1.546473    2.016299
 C   -5.093767   -0.468893    0.459688
 O   -5.939500    0.038005    1.475048
 C   -5.153701    0.501763   -0.702078
 O   -6.455787    0.579743   -1.240949
 C   -4.227811    0.023939   -1.813853
 O   -2.891028   -0.111239   -1.291569
 C   -4.136204    0.999145   -2.966054
 O   -3.344270    0.491863   -4.020146
 H    0.581763   -3.550212    1.141848
 H   -0.900405    0.700117   -0.427044
 H    3.958241    2.630881   -1.216578
 H    3.222580    3.561477    0.079295
 H   -3.178106   -2.040629   -0.611503
 H    4.497121    2.246626    1.771345
 H    5.558837    3.061004    0.633555
 H    5.816790    0.920725   -0.638277
 H    4.748996    0.116082    0.495122
 H    7.411746    1.424747    1.226939
 H    6.335688    0.621846    2.353381
 H    7.701070   -0.731411   -0.036245
 H    6.606058   -1.531074    1.090836
 H    8.164216   -0.923971    1.656516
 H   -3.287692    0.333182    1.299937
 H   -3.248954   -2.383430    1.726278
 H   -5.457483   -1.449274    0.124453
 H   -5.839416   -0.530357    2.242519
 H   -4.817326    1.487917   -0.349836
 H   -7.059169    0.726255   -0.507566
 H   -4.575884   -0.951606   -2.180417
 H   -5.135802    1.155989   -3.364284
 H   -3.748432    1.957084   -2.598304
 H   -2.445486    0.394451   -3.696404
