19 
4ej8_ligand_ani-2x.xyz
 O   -9.037552   22.624542  -25.280759
 C   -9.654564   21.656353  -24.897475
 O   -9.199870   20.401016  -25.093197
 C  -10.956297   21.707297  -24.181123
 C  -11.503589   22.984617  -23.934537
 C  -12.707929   23.135435  -23.276399
 C  -13.391275   21.983473  -22.849181
 C  -14.629708   21.746492  -22.155445
 C  -14.762413   20.395753  -22.023547
 N  -13.677589   19.766534  -22.594753
 C  -12.823448   20.713768  -23.107422
 C  -11.607266   20.551549  -23.771629
 H   -8.356806   20.504019  -25.563781
 H  -10.945777   23.849051  -24.279916
 H  -13.116942   24.125689  -23.093688
 H  -15.325595   22.496140  -21.803963
 H  -15.550734   19.815122  -21.563206
 H  -11.180969   19.571910  -23.964328
 H  -13.527677   18.772239  -22.635650
