19 
4ej8_ligand_aiqm1.xyz
 O   -9.034618   22.622259  -25.282579
 C   -9.658794   21.664991  -24.896106
 O   -9.219143   20.396161  -25.083423
 C  -10.955796   21.718180  -24.182290
 C  -11.505571   22.995741  -23.934423
 C  -12.708345   23.136058  -23.276457
 C  -13.388430   21.980535  -22.850580
 C  -14.621426   21.750615  -22.159776
 C  -14.754357   20.394257  -22.027257
 N  -13.673017   19.762763  -22.596799
 C  -12.817989   20.710678  -23.110165
 C  -11.601556   20.557660  -23.775145
 H   -8.379155   20.475294  -25.550726
 H  -10.952538   23.858673  -24.277379
 H  -13.120664   24.119291  -23.091682
 H  -15.321097   22.487420  -21.805581
 H  -15.539786   19.816038  -21.568397
 H  -11.171113   19.583526  -23.970358
 H  -13.532606   18.770859  -22.630876
