25 
4ejl_ligand_dft.xyz
 C  -11.657884   56.273595   23.967760
 O  -11.192875   56.652694   25.006372
 O  -12.998721   56.351530   23.760869
 C  -10.850769   55.698289   22.814845
 C  -11.353153   54.315313   22.352893
 N  -11.896238   52.068350   25.243729
 C  -12.323768   53.016656   24.343090
 C  -11.326458   53.297234   23.451507
 C  -10.201965   52.482259   23.830455
 C   -8.904294   52.322957   23.322742
 C   -8.048355   51.427837   23.939091
 C   -8.462402   50.682797   25.059753
 C   -9.736719   50.818364   25.582590
 C  -10.595639   51.725492   24.956759
 H  -13.213391   56.048266   22.869085
 H  -10.877372   56.408648   21.977135
 H   -9.818124   55.626280   23.161488
 H  -12.366315   54.390904   21.934243
 H  -10.722354   53.983713   21.520597
 H  -12.436796   51.717255   26.015783
 H  -13.317520   53.436631   24.417437
 H   -8.575165   52.895241   22.459112
 H   -7.040500   51.296049   23.557396
 H   -7.767920   49.988750   25.523362
 H  -10.054302   50.243897   26.447907
