25 
4ejl_ligand_aiqm1.xyz
 C  -11.783727   56.404360   23.867412
 O  -11.401627   57.070137   24.786379
 O  -13.115209   56.211001   23.679350
 C  -10.874455   55.765487   22.835370
 C  -11.275937   54.352326   22.388295
 N  -11.851625   52.117210   25.292537
 C  -12.259116   53.095634   24.413777
 C  -11.266352   53.347175   23.500803
 C  -10.174691   52.474136   23.848712
 C   -8.896741   52.259876   23.306785
 C   -8.068513   51.323805   23.900440
 C   -8.488679   50.590693   25.027312
 C   -9.743374   50.777585   25.579649
 C  -10.574914   51.726648   24.976109
 H  -13.244283   55.659450   22.901160
 H  -10.851533   56.436275   21.969242
 H   -9.877824   55.756557   23.270258
 H  -12.263573   54.379241   21.909601
 H  -10.585104   54.034157   21.608910
 H  -12.385044   51.797530   26.078106
 H  -13.233582   53.545288   24.527632
 H   -8.560500   52.813724   22.437920
 H   -7.080913   51.150361   23.494962
 H   -7.816717   49.867393   25.469442
 H  -10.064969   50.212949   26.445836
