66 
4ele_ligand_xtb.xyz
 O    2.551662   -1.403136   -1.221197
 C    1.946170   -0.628387   -0.500303
 N    2.570525    0.519265   -0.042288
 N    1.903263    1.351807    0.763871
 C    2.516615    2.307022    1.351276
 C    3.952097    2.480962    1.321233
 C    4.619460    3.347541    2.183299
 C    6.000462    3.365515    2.210974
 C    6.720112    2.493360    1.408865
 C    6.062601    1.625003    0.551306
 C    4.680085    1.633723    0.476692
 C    3.932519    0.788070   -0.513979
 C    3.857702    1.435190   -1.924557
 C    5.234657    1.504115   -2.576518
 C    3.216045    2.819772   -1.890341
 C    0.567103   -0.816741   -0.046526
 C   -0.119303   -1.905898   -0.417306
 C   -1.478911   -2.239780   -0.044165
 C   -2.060003   -3.405929   -0.576763
 O   -1.320296   -4.177082   -1.447076
 C   -1.055104   -5.496450   -1.004781
 C   -3.380051   -3.728807   -0.242952
 O   -4.025015   -4.840416   -0.746963
 C   -4.189172   -4.856806   -2.154182
 C   -4.077706   -2.939838    0.662479
 C   -3.501632   -1.809961    1.223620
 C   -4.277387   -0.947554    2.187961
 C   -4.540533    0.405553    1.582160
 C   -5.648156    0.621168    0.783037
 N   -5.919732    1.769962    0.183592
 C   -5.048362    2.756236    0.390897
 N   -5.331779    3.960192   -0.163971
 N   -3.949600    2.678259    1.138607
 C   -3.685168    1.516749    1.728577
 N   -2.513054    1.466990    2.428147
 C   -2.217745   -1.459327    0.843752
 H    1.907220    2.947096    1.972295
 H    4.046862    3.996239    2.830413
 H    6.519151    4.046645    2.869190
 H    7.799203    2.490071    1.449563
 H    6.628904    0.939479   -0.060909
 H    4.419316   -0.188689   -0.628518
 H    3.226771    0.769805   -2.523436
 H    5.702061    0.522442   -2.592892
 H    5.881442    2.196584   -2.041977
 H    5.138454    1.852059   -3.602340
 H    2.212289    2.779294   -1.473134
 H    3.814763    3.507995   -1.295685
 H    3.144328    3.216509   -2.900580
 H    0.159887   -0.037037    0.574953
 H    0.378518   -2.618893   -1.062860
 H   -0.401158   -5.481142   -0.126207
 H   -0.543278   -5.990123   -1.829078
 H   -1.969966   -6.040634   -0.758616
 H   -3.238545   -4.757184   -2.682567
 H   -4.858440   -4.049657   -2.470830
 H   -4.642450   -5.818179   -2.389831
 H   -5.086731   -3.231941    0.911827
 H   -5.231402   -1.426828    2.415172
 H   -3.718596   -0.849816    3.122641
 H   -6.364709   -0.172436    0.608731
 H   -6.040190    3.977784   -0.875736
 H   -4.594913    4.641942   -0.191281
 H   -2.423754    0.788517    3.165509
 H   -2.083912    2.363811    2.588714
 H   -1.773395   -0.564154    1.245994
