26 
4en4_ligand_ani-2x.xyz
 C   28.874271    8.049000   39.543688
 N   29.639223    8.784099   38.731643
 C   30.497725    8.159914   37.936052
 C   30.615247    6.758224   37.939517
 C   29.808197    5.983268   38.770526
 C   28.914244    6.660898   39.612873
 C   29.890319    4.465380   38.826652
 O   30.172278    3.959510   40.113894
 C   31.481083    4.262805   40.545195
 C   28.025023    5.934480   40.592108
 O   27.014435    6.818286   41.036327
 C   31.363836    8.975561   37.018315
 O   31.552032    6.248489   37.088939
 H   28.182326    8.590273   40.181215
 H   30.626683    4.065402   38.112980
 H   28.926896    4.027814   38.543746
 H   32.241087    3.812383   39.886590
 H   31.653500    5.347097   40.587435
 H   31.592751    3.843706   41.548918
 H   28.630694    5.567301   41.433411
 H   27.585064    5.047338   40.114301
 H   26.477514    6.352503   41.687227
 H   31.130580   10.034737   37.147327
 H   32.425832    8.811501   37.230382
 H   31.204014    8.695052   35.971683
 H   31.656149    5.303177   37.247758
