59 
4eox_ligand_aiqm1.xyz
 C    2.657661    4.032797    1.477199
 C    2.015688    4.746769    0.465567
 C    2.954745    2.684431    1.289903
 C    1.670597    4.111445   -0.720045
 C    2.603904    2.042804    0.103461
 C    1.950552    2.755146   -0.907781
 C   -2.218463   -4.319067    1.564359
 C    1.500404    2.152590   -2.203685
 C    1.026743   -0.060487   -3.244308
 C    0.507478   -1.565993   -0.411134
 C   -1.962144    2.346478    0.231890
 C   -1.343384    2.940707    1.518073
 C   -1.135893   -2.299008   -3.606643
 C    0.361946   -2.431401   -3.884933
 C   -1.946871    0.833633    0.453318
 C   -0.614392    1.764909    2.210983
 C   -1.230552   -2.282299   -2.079031
 C    0.981173   -1.543204   -2.813397
 C   -0.617252    0.630759    1.178875
 C   -0.390553   -0.750564    1.773725
 C   -0.042776   -3.238055    1.304862
 C   -0.450583   -1.866894    0.727964
 N    0.076508   -1.729570   -1.670280
 N    1.436109    0.759085   -2.206808
 N   -1.067705   -3.852027    2.135577
 O   -2.312987   -4.554060    0.376087
 O    1.182826    2.836271   -3.149743
 O    0.737078    0.299942   -4.360768
 O    1.655530   -1.171808   -0.176237
 O   -1.249801   -3.265086    3.392484
 H    2.919377    4.523784    2.405928
 H    1.778059    5.793346    0.607038
 H    3.444997    2.121450    2.073184
 H    1.172075    4.644468   -1.517935
 H    2.833441    0.989233   -0.009098
 H   -3.014455   -4.480580    2.299630
 H   -2.952906    2.742802    0.016755
 H   -1.320481    2.576795   -0.622468
 H   -2.109070    3.358079    2.170375
 H   -0.650613    3.745122    1.271380
 H   -1.495449   -1.353707   -4.012560
 H   -1.723693   -3.106248   -4.037957
 H    0.633424   -2.103571   -4.883501
 H    0.691541   -3.460866   -3.737625
 H   -2.014898    0.262595   -0.480488
 H   -2.775837    0.524681    1.101996
 H   -1.158986    1.449007    3.104843
 H    0.400669    2.023870    2.516169
 H   -2.043817   -1.650730   -1.722443
 H   -1.365667   -3.282369   -1.661173
 H    1.987288   -1.841226   -2.517411
 H    0.175823    0.840622    0.459220
 H    0.594196   -0.773699    2.250966
 H   -1.137660   -0.941441    2.548407
 H    0.863890   -3.140137    1.900016
 H    0.138282   -3.947924    0.497756
 H   -1.466302   -1.951899    0.340984
 H    1.639913    0.271325   -1.344955
 H   -0.778030   -3.840823    4.000832
