40 
4erk_ligand_xtb.xyz
 N  -15.903156   11.893120   40.715424
 C  -16.713438   11.130793   41.513046
 N  -17.568237   11.816557   42.208553
 C  -17.325938   13.125001   41.866869
 C  -16.282404   13.184111   40.930787
 C  -17.887531   14.356657   42.242821
 N  -17.396587   15.472833   41.714071
 C  -16.392669   15.395851   40.827588
 N  -15.788829   14.293457   40.384852
 C  -14.860839   11.455262   39.832833
 N  -15.978704   16.562833   40.264597
 C  -16.265549   17.830241   40.885044
 C  -15.267408   18.175445   42.001589
 O  -15.126885   17.134368   42.930484
 N  -18.902313   14.439904   43.125219
 C  -19.543353   15.691480   43.443636
 C  -17.713260   16.209361   45.094076
 C  -16.866255   17.097517   45.733598
 C  -16.910606   18.446497   45.424283
 C  -17.802642   18.901622   44.468363
 C  -18.644553   18.011490   43.823923
 C  -18.609956   16.658159   44.132264
 H  -16.632413   10.061559   41.544489
 H  -15.260781   10.788593   39.065667
 H  -14.438040   12.340818   39.361444
 H  -14.080674   10.930224   40.388358
 H  -15.104251   16.481719   39.767250
 H  -17.267697   17.750621   41.311932
 H  -16.250625   18.613305   40.122474
 H  -15.598062   19.100165   42.499708
 H  -14.268649   18.340785   41.586030
 H  -16.007107   16.793055   43.137830
 H  -19.250096   13.571977   43.494805
 H  -20.396762   15.479343   44.093923
 H  -19.914394   16.154954   42.521367
 H  -17.675497   15.157406   45.336539
 H  -16.170095   16.736129   46.475250
 H  -16.250016   19.138875   45.923822
 H  -17.843252   19.952873   44.221791
 H  -19.338677   18.371040   43.077403
