40 
4erk_ligand_aiqm1.xyz
 N  -15.983031   11.752801   40.928811
 C  -17.066400   11.043461   41.396157
 N  -18.015938   11.795742   41.891554
 C  -17.526111   13.082115   41.737943
 C  -16.271309   13.070240   41.143847
 C  -18.028058   14.355592   42.060511
 N  -17.314845   15.449396   41.768578
 C  -16.098199   15.270779   41.200016
 N  -15.498365   14.124424   40.856986
 C  -14.769063   11.255618   40.325395
 N  -15.416096   16.416377   40.904568
 C  -15.759423   17.659113   41.568900
 C  -14.849508   18.756023   41.072095
 O  -13.513886   18.375021   41.403720
 N  -19.218556   14.506895   42.684766
 C  -19.780552   15.814187   42.969238
 C  -18.422975   15.953933   45.110293
 C  -17.697684   16.681044   46.049255
 C  -17.542193   18.057657   45.904587
 C  -18.115872   18.704381   44.814141
 C  -18.839511   17.972366   43.873449
 C  -19.003377   16.591660   44.011699
 H  -17.089688    9.966403   41.340257
 H  -14.668922   11.649178   39.315397
 H  -13.908380   11.577131   40.909015
 H  -14.809851   10.168156   40.295765
 H  -14.426949   16.264116   40.770400
 H  -15.685330   17.572686   42.659367
 H  -16.789894   17.918938   41.327826
 H  -15.110401   19.703993   41.552485
 H  -14.961352   18.864040   39.988890
 H  -12.908422   19.013172   41.024875
 H  -19.768819   13.678925   42.836248
 H  -20.806915   15.659635   43.301179
 H  -19.817259   16.399376   42.046417
 H  -18.525395   14.880908   45.216150
 H  -17.245153   16.173365   46.892355
 H  -16.972854   18.620135   46.632690
 H  -17.996702   19.774000   44.692288
 H  -19.274963   18.473016   43.015887
