21 
4eu3_ligand_ani-2x.xyz
 C  -19.187196  -27.443710  -30.938611
 O  -20.286786  -27.913728  -31.091447
 O  -18.128523  -28.049692  -31.505684
 C  -18.865609  -26.200550  -30.117379
 C  -20.113327  -25.441115  -29.609717
 O  -21.008153  -26.321783  -28.995253
 C  -19.679502  -24.423159  -28.544268
 C  -20.802458  -23.488213  -28.106580
 O  -21.813164  -23.303441  -28.731177
 O  -20.585531  -22.824046  -26.953619
 C  -20.821960  -24.776816  -30.822735
 O  -21.813683  -25.230020  -31.320423
 O  -20.202518  -23.712280  -31.365348
 H  -17.310072  -27.577250  -31.296989
 H  -18.231081  -25.523703  -30.705188
 H  -18.278611  -26.525626  -29.248715
 H  -21.392821  -26.835182  -29.731763
 H  -18.819944  -23.823894  -28.883728
 H  -19.344540  -25.000821  -27.676099
 H  -19.731568  -23.071136  -26.572946
 H  -19.482853  -23.400335  -30.801430
