21 
4eu3_ligand_xtb.xyz
 C  -19.550028  -27.584384  -30.752913
 O  -20.506105  -28.265285  -30.482310
 O  -18.979069  -27.611386  -31.945190
 C  -18.979337  -26.611987  -29.725434
 C  -19.915728  -25.385277  -29.666378
 O  -21.235392  -25.745397  -29.347392
 C  -19.422543  -24.402254  -28.576924
 C  -20.471579  -23.363424  -28.199102
 O  -21.381197  -23.025327  -28.903088
 O  -20.299966  -22.803014  -27.001918
 C  -19.863652  -24.686722  -31.060939
 O  -18.943493  -24.900887  -31.815351
 O  -20.864664  -23.903082  -31.348616
 H  -18.447743  -26.812271  -32.121526
 H  -17.969123  -26.295319  -29.982318
 H  -18.983121  -27.108238  -28.753479
 H  -21.417703  -26.649158  -29.654173
 H  -18.530119  -23.877725  -28.930546
 H  -19.158785  -24.979586  -27.686629
 H  -19.545868  -23.149312  -26.506614
 H  -21.434683  -23.726466  -30.558261
