50 
4eyj_ligand_aiqm1.xyz
 O  -12.608448   12.840871  -26.511784
 C  -13.512763   12.033775  -26.590952
 N  -14.547546   11.966496  -25.681689
 C  -14.662460   12.809312  -24.579564
 C  -13.886683   13.847813  -24.114186
 C  -14.563125   14.284395  -22.948257
 C  -14.209099   15.393923  -21.991449
 C  -12.917556   16.098007  -22.415004
 C  -14.029450   14.796089  -20.587911
 C  -15.361312   16.409576  -21.966372
 N  -15.664182   13.565121  -22.724985
 N  -15.710777   12.660921  -23.739567
 C  -16.772980   11.697512  -23.839702
 N  -13.629637   11.090883  -27.587360
 C  -12.759886   10.873313  -28.673623
 C  -11.573342   11.588028  -28.876253
 C  -10.784170   11.298887  -29.986177
 C  -11.158263   10.308062  -30.885416
 C  -12.335715    9.596700  -30.691829
 C  -13.127398    9.880913  -29.586032
 O  -10.329901    9.991974  -31.947558
 C  -10.556237   10.642121  -33.125382
 C   -9.742843   10.296314  -34.200733
 C   -9.948085   10.942079  -35.410648
 N  -10.880025   11.880743  -35.620504
 C  -11.646087   12.194854  -34.573524
 C  -11.536657   11.616906  -33.310093
 H  -15.258163   11.265702  -25.796482
 H  -12.979586   14.223489  -24.549181
 H  -12.686946   16.896349  -21.704714
 H  -12.076712   15.401239  -22.431963
 H  -13.018178   16.541551  -23.407944
 H  -13.204607   14.080607  -20.574511
 H  -13.810148   15.589865  -19.868785
 H  -14.938335   14.280203  -20.272933
 H  -15.143095   17.204857  -21.248576
 H  -15.500460   16.861626  -22.950641
 H  -16.293923   15.922510  -21.675820
 H  -17.330543   11.827536  -24.770402
 H  -16.381563   10.678715  -23.786776
 H  -17.438600   11.865666  -23.001223
 H  -14.426581   10.479555  -27.559665
 H  -11.275987   12.358777  -28.184639
 H   -9.866336   11.842246  -30.166402
 H  -12.622985    8.833185  -31.400868
 H  -14.046232    9.324687  -29.434711
 H   -8.974129    9.545563  -34.083283
 H   -9.326376   10.689289  -36.260877
 H  -12.396726   12.956298  -34.747719
 H  -12.189960   11.921297  -32.503432
