48 
4eym_ligand_xtb.xyz
 O  -12.969815   12.528424  -26.226388
 C  -13.795665   11.650134  -26.104220
 C  -14.635630   11.512392  -24.874774
 C  -14.955466   10.279088  -24.333301
 C  -15.719416   10.240752  -23.151183
 N  -16.037653    9.074602  -22.531990
 C  -16.963311    9.060779  -21.418521
 C  -17.996649    7.961714  -21.639902
 O  -17.410114    6.672475  -21.739705
 C  -16.039044    6.694485  -22.062183
 C  -15.687120    7.780820  -23.076863
 N  -16.162010   11.360524  -22.569109
 C  -15.846884   12.526879  -23.099735
 C  -15.077879   12.673128  -24.238182
 N  -14.075003   10.705319  -27.052334
 C  -13.494407   10.525423  -28.309379
 C  -14.012432    9.524991  -29.131140
 C  -13.482001    9.299720  -30.384136
 C  -12.418314   10.072303  -30.836390
 C  -11.886026   11.058963  -30.014447
 C  -12.421121   11.288243  -28.762135
 O  -11.880573    9.756555  -32.063519
 C  -11.508339   10.734836  -32.929668
 C  -12.010526   12.034267  -32.916892
 C  -11.577266   12.908353  -33.899370
 N  -10.718706   12.585941  -34.850359
 C  -10.255686   11.346569  -34.864506
 C  -10.611634   10.383686  -33.939231
 H  -14.595252    9.368173  -24.784553
 H  -17.442649   10.038779  -21.369595
 H  -16.426780    8.889348  -20.477684
 H  -18.556089    8.171458  -22.563588
 H  -18.703997    7.924849  -20.806794
 H  -15.812958    5.708198  -22.474460
 H  -15.433181    6.837281  -21.155156
 H  -14.611746    7.734414  -23.279888
 H  -16.230810    7.590119  -24.014472
 H  -16.234631   13.387792  -22.570925
 H  -14.821721   13.640118  -24.636793
 H  -14.833952   10.070447  -26.845390
 H  -14.840403    8.921446  -28.786124
 H  -13.878488    8.526230  -31.022818
 H  -11.042800   11.643301  -30.351840
 H  -12.008633   12.055760  -28.129505
 H  -12.725215   12.348816  -32.172035
 H  -11.943713   13.926120  -33.925539
 H   -9.559140   11.117167  -35.659863
 H  -10.217851    9.381218  -33.980016
