63 
4ez5_ligand_aiqm1.xyz
 C   40.436858   23.155534   15.941579
 C   38.657967   23.736251   14.368334
 C   38.754728   21.353025   15.361396
 O   36.234096   26.349689   10.728720
 C   36.475477   21.933254   10.283620
 C   36.417835   24.038518   10.322565
 C   36.690266   22.403835   11.605765
 C   36.274922   25.446984    9.910009
 C   36.125709   25.780640    8.442818
 C   35.268800   26.821395    8.080693
 C   35.115651   27.117833    6.734448
 C   36.565916   25.461500    6.097990
 C   36.803969   25.117029    7.429086
 C   37.249786   24.756045    4.977001
 C   37.868310   25.510561    4.009465
 C   38.598782   23.702185    2.835245
 C   37.983602   22.801561    3.741790
 C   38.050487   21.398964    3.540043
 C   37.426195   20.544533    4.409134
 C   36.711896   21.068444    5.513253
 C   36.635243   22.420694    5.737399
 C   37.281131   23.332434    4.851454
 N   39.026468   22.881506   15.559764
 C   37.244463   21.140180   15.422109
 C   36.814588   19.791152   14.808085
 N   37.430615   19.485440   13.527481
 C   38.883557   19.481439   13.674982
 C   39.432857   20.863782   14.091650
 C   37.026194   20.321025   12.422710
 C   36.827543   19.744707   11.148843
 C   36.535821   20.555113   10.061927
 N   36.292172   23.007777    9.460959
 N   36.657368   23.755474   11.627463
 N   36.946759   21.620005   12.664420
 N   35.742110   26.462078    5.748910
 N   38.549487   25.009068    2.941485
 H   40.706612   22.597830   16.835329
 H   41.087493   22.856818   15.127544
 H   40.568941   24.218894   16.112793
 H   39.416731   23.631248   13.600778
 H   37.715076   23.435385   13.935839
 H   38.616614   24.776948   14.680276
 H   39.234525   20.892469   16.232035
 H   34.737074   27.376672    8.841938
 H   34.457703   27.921920    6.422824
 H   37.482056   24.310539    7.666728
 H   37.829820   26.590473    4.071234
 H   39.143599   23.299830    1.984226
 H   38.596608   21.022127    2.683067
 H   37.471928   19.474173    4.253891
 H   36.216003   20.388466    6.194968
 H   36.084026   22.779206    6.594060
 H   38.421633   23.162838   16.334290
 H   36.744869   21.918557   14.859589
 H   36.912843   21.194926   16.465475
 H   35.733130   19.786409   14.693394
 H   37.082997   18.980217   15.496838
 H   39.330353   19.194256   12.725190
 H   39.150916   18.726913   14.423089
 H   40.515967   20.804340   14.234138
 H   39.225821   21.549251   13.276418
 H   36.917635   18.672311   11.035596
 H   36.381999   20.131131    9.076655
