33 
4f08_ligand_dft.xyz
 C   10.638049  -53.836104  -23.419284
 N   11.339615  -53.016790  -24.144938
 C   11.282748  -51.821995  -23.449007
 C   11.870026  -50.585609  -23.778424
 N   11.733656  -49.515375  -23.016392
 C   10.997207  -49.686308  -21.906838
 C   10.344198  -50.847894  -21.433031
 C   10.517897  -51.963359  -22.277859
 N   10.108448  -53.278427  -22.277041
 C    9.287463  -53.987236  -21.303649
 C    7.871945  -53.405323  -21.223384
 C    7.057928  -54.129327  -20.141028
 N    7.706228  -54.170870  -18.835888
 C    9.043306  -54.746604  -18.914832
 C    9.965022  -54.056121  -19.930796
 C    9.699159  -50.487150  -20.204310
 C    9.974572  -49.164139  -19.984172
 N   10.752540  -48.682036  -21.003115
 H   10.457028  -54.878588  -23.652082
 H   12.459400  -50.488433  -24.686649
 H    9.205436  -55.012940  -21.687213
 H    7.922824  -52.335335  -20.992955
 H    7.385254  -53.496493  -22.201257
 H    6.074932  -53.660989  -20.031365
 H    6.879697  -55.168295  -20.451548
 H    7.761857  -53.230281  -18.452472
 H    8.928661  -55.805377  -19.185932
 H    9.495866  -54.724385  -17.918668
 H   10.915686  -54.594193  -20.020922
 H   10.204554  -53.044876  -19.583705
 H    9.104547  -51.112897  -19.555877
 H    9.671055  -48.523857  -19.168999
 H   11.105196  -47.744391  -21.103370
