33 
4f08_ligand_ani-2x.xyz
 C   10.630715  -53.828073  -23.408501
 N   11.333420  -53.019847  -24.141038
 C   11.282651  -51.822486  -23.454085
 C   11.875017  -50.590949  -23.794543
 N   11.746043  -49.512427  -23.040184
 C   11.010298  -49.668856  -21.923736
 C   10.356034  -50.839230  -21.452146
 C   10.519287  -51.951710  -22.279854
 N   10.105126  -53.266821  -22.272536
 C    9.281920  -53.974809  -21.291181
 C    7.870434  -53.390184  -21.185935
 C    7.052019  -54.169378  -20.149531
 N    7.682692  -54.264485  -18.835142
 C    9.042726  -54.790211  -18.926553
 C    9.944219  -54.036670  -19.911715
 C    9.719878  -50.454231  -20.222050
 C    9.997278  -49.137110  -20.006850
 N   10.774147  -48.662706  -21.030496
 H   10.445995  -54.872722  -23.636461
 H   12.462231  -50.507918  -24.706539
 H    9.197352  -54.999291  -21.673683
 H    7.939020  -52.339116  -20.882389
 H    7.380170  -53.418223  -22.163839
 H    6.059587  -53.721765  -20.025303
 H    6.889881  -55.193640  -20.514019
 H    7.724612  -53.331640  -18.429829
 H    8.970951  -55.842581  -19.235774
 H    9.481993  -54.789364  -17.922677
 H   10.921988  -54.522103  -19.987530
 H   10.110791  -53.016216  -19.547521
 H    9.122496  -51.058306  -19.555064
 H    9.701538  -48.483159  -19.195373
 H   11.129491  -47.725773  -21.134925
