33 
4f08_ligand_xtb.xyz
 C   10.623925  -53.830060  -23.392919
 N   11.322450  -53.014082  -24.111940
 C   11.279418  -51.820261  -23.439005
 C   11.867781  -50.596539  -23.773819
 N   11.731433  -49.532960  -23.015854
 C   11.002682  -49.679060  -21.909477
 C   10.345414  -50.847144  -21.434975
 C   10.505148  -51.968620  -22.259713
 N   10.096254  -53.277915  -22.259122
 C    9.283321  -53.993287  -21.302732
 C    7.875505  -53.395601  -21.210604
 C    7.065366  -54.150319  -20.146897
 N    7.712222  -54.181017  -18.851471
 C    9.035603  -54.763964  -18.931131
 C    9.955739  -54.043385  -19.926867
 C    9.710898  -50.473465  -20.218745
 C    9.990726  -49.155606  -20.006442
 N   10.765414  -48.677747  -21.019661
 H   10.457052  -54.860555  -23.643349
 H   12.456320  -50.487773  -24.672051
 H    9.196974  -55.020621  -21.681219
 H    7.939475  -52.339305  -20.947474
 H    7.380810  -53.469612  -22.181029
 H    6.081005  -53.691920  -20.030923
 H    6.923353  -55.188274  -20.464565
 H    7.774472  -53.238545  -18.476627
 H    8.913566  -55.808111  -19.236554
 H    9.479799  -54.750571  -17.933606
 H   10.909900  -54.568427  -20.003226
 H   10.158383  -53.030329  -19.577938
 H    9.117730  -51.083653  -19.566384
 H    9.687081  -48.522580  -19.195103
 H   11.116780  -47.740691  -21.115579
