36 
4f09_ligand_xtb.xyz
 C   12.704618    4.128314  -44.458418
 C   13.804333    3.149040  -44.266377
 N   13.756937    1.928157  -44.703478
 C   14.943484    1.350445  -44.333449
 C   15.398491    0.048554  -44.558126
 N   16.574790   -0.355927  -44.134108
 C   17.310705    0.540944  -43.478661
 C   16.990043    1.892472  -43.173009
 C   15.731322    2.298456  -43.635775
 N   14.976418    3.445949  -43.606265
 C   15.319367    4.716745  -43.011950
 C   15.519025    4.574423  -41.499619
 C   15.989854    5.899203  -40.905536
 N   17.212489    6.306393  -41.570331
 C   16.974699    6.599052  -42.970472
 C   16.560116    5.314555  -43.683049
 C   18.108673    2.412933  -42.462906
 C   19.024155    1.406970  -42.367254
 N   18.548521    0.283513  -42.975400
 H   11.908068    3.633159  -45.005288
 H   12.314687    4.472819  -43.500853
 H   13.043451    4.990996  -45.031705
 H   14.794637   -0.670645  -45.090350
 H   14.475047    5.393851  -43.185013
 H   14.579948    4.269090  -41.033115
 H   16.263753    3.807420  -41.299210
 H   15.187008    6.652995  -41.014513
 H   16.197084    5.773116  -39.840711
 H   17.613007    7.114452  -41.105469
 H   16.185152    7.362334  -43.106990
 H   17.898842    6.982083  -43.408593
 H   17.379502    4.600547  -43.639804
 H   16.344043    5.523527  -44.732994
 H   18.240149    3.400273  -42.065322
 H   19.991287    1.416160  -41.902610
 H   19.017293   -0.602368  -43.052276
