48 
4f6x_ligand_aiqm1.xyz
 C  -22.413174   21.980696    9.109817
 O  -24.573787    5.810295    7.593653
 O  -23.353465    8.735456    4.988758
 O  -24.296675    6.418626    5.485173
 O  -23.931747    7.472516    9.521163
 C  -25.572641   13.121644    5.269981
 C  -24.665598   12.070783    5.253503
 C  -25.188323   14.410329    5.652208
 C  -23.056615    9.605306    8.928662
 C  -22.678117   10.475388    7.958083
 C  -22.941457   13.581812    6.001293
 C  -23.107473   20.674784    8.741867
 C  -23.600429   20.675666    7.298761
 C  -24.351514   19.409694    6.895907
 C  -23.471733   18.164936    6.850294
 C  -24.251126   16.947094    6.408687
 C  -22.358425   11.162297    5.640380
 O  -23.356620   15.840391    6.402285
 C  -24.221564    6.644731    6.798705
 C  -23.337596   12.306315    5.623056
 C  -23.858696   14.638919    6.014429
 C  -23.564833    8.325578    8.555922
 C  -23.678337    7.982720    7.217976
 C  -23.270851    8.935339    6.211092
 N  -22.750698   10.156713    6.644245
 H  -21.551193   22.154999    8.463215
 H  -23.091672   22.828501    8.994262
 H  -22.062943   21.969065   10.141916
 H  -23.963968    7.211680    5.009005
 H  -23.782680    7.895628   10.371557
 H  -26.600015   12.944513    4.980699
 H  -24.971217   11.080238    4.946670
 H  -25.915249   15.209040    5.655586
 H  -22.979546    9.893516    9.968102
 H  -22.295645   11.461462    8.180961
 H  -21.915479   13.799804    6.276346
 H  -23.956638   20.505948    9.410722
 H  -22.420882   19.838477    8.899589
 H  -22.746934   20.820136    6.626481
 H  -24.258292   21.536452    7.152185
 H  -24.803222   19.562037    5.911028
 H  -25.179464   19.243993    7.595771
 H  -23.035988   17.965152    7.832937
 H  -22.638711   18.321752    6.159135
 H  -24.666596   17.096687    5.406727
 H  -25.080842   16.753176    7.096759
 H  -21.349225   11.505869    5.875095
 H  -22.348405   10.639649    4.688948
