20 
4f8j_ligand_aiqm1.xyz
 C   13.228028   45.247571   29.743610
 O   12.952547   46.200731   30.418793
 O   14.186517   44.379277   30.157588
 C   12.553152   44.954705   28.452851
 C   13.089330   44.241540   27.449572
 C   12.481367   43.964536   26.148966
 C   11.155179   44.301264   25.830249
 C   10.625663   44.013681   24.581141
 C   11.413646   43.382495   23.620117
 C   12.730096   43.037133   23.915219
 C   13.249959   43.327180   25.170982
 O   10.839780   43.127524   22.412275
 H   14.216022   43.623807   29.563216
 H   11.592442   45.437434   28.349816
 H   14.095353   43.833712   27.565670
 H   10.522494   44.785971   26.562538
 H    9.605044   44.271453   24.334364
 H   13.348420   42.546190   23.173501
 H   14.276196   43.057072   25.388470
 H   11.480564   42.697323   21.842263
