43 
4f9w_ligand_xtb.xyz
 C    0.971872    4.554120   22.491752
 N    0.325750    3.368949   22.999530
 C    0.748670    2.884192   24.289295
 C   -0.534733    2.670318   22.225684
 N   -0.853854    3.196653   21.033196
 N   -1.744500    2.645461   20.280553
 C   -2.363491    1.526136   20.613324
 C   -1.995160    0.821899   21.788649
 C   -2.494547   -0.525666   22.087751
 C   -2.497914   -1.526420   21.117069
 C   -2.967691   -2.781288   21.462511
 N   -3.418715   -3.089018   22.667547
 C   -3.410742   -2.142086   23.589825
 C   -2.958182   -0.853915   23.360127
 C   -1.073092    1.423875   22.616335
 C   -3.412947    1.065354   19.698612
 C   -3.245709    1.202663   18.340838
 C   -4.232884    0.766412   17.438139
 C   -4.074813    0.885356   16.040750
 C   -5.048360    0.446097   15.188463
 C   -6.224212   -0.132803   15.691952
 C   -6.408201   -0.260488   17.040542
 C   -5.423962    0.183680   17.946410
 C   -5.585809    0.081622   19.344616
 C   -4.611965    0.510440   20.197812
 H    2.047431    4.389603   22.381242
 H    0.539699    4.784868   21.521572
 H    0.809404    5.391925   23.173513
 H   -0.112847    2.622859   24.907515
 H    1.399345    2.006683   24.202850
 H    1.302196    3.673641   24.792997
 H   -2.135199   -1.326301   20.120597
 H   -2.986166   -3.584952   20.738040
 H   -3.786153   -2.434076   24.562343
 H   -2.983481   -0.111481   24.144196
 H   -0.723717    0.911207   23.499075
 H   -2.337410    1.648460   17.963680
 H   -3.167890    1.332335   15.659329
 H   -4.921251    0.540409   14.119720
 H   -6.982778   -0.475294   15.003143
 H   -7.312543   -0.703789   17.433216
 H   -6.502515   -0.340227   19.731989
 H   -4.762235    0.447087   21.266100
