43 
4f9y_ligand_dft.xyz
 C   -4.710265   -2.711087    0.139181
 N   -4.308721   -1.314911    0.090389
 C   -5.231964   -0.364175   -0.490703
 C   -2.978912   -0.997152    0.177436
 N   -2.141593   -1.991799    0.517291
 N   -0.857553   -1.749458    0.696159
 C   -0.343649   -0.535384    0.510555
 C   -1.147330    0.542742    0.073010
 C   -0.597988    1.884626   -0.246318
 C   -1.202003    3.039270    0.251624
 C   -0.674946    4.279587   -0.094616
 N    0.383557    4.441442   -0.888985
 C    0.953718    3.330717   -1.364636
 C    0.511985    2.045256   -1.077989
 C   -2.494582    0.300936   -0.087245
 C    1.106304   -0.377485    0.815708
 C    2.102788   -1.084913    0.072641
 C    1.784673   -1.969122   -0.993560
 C    2.773805   -2.604149   -1.699314
 C    4.134383   -2.395227   -1.377722
 C    4.473441   -1.547894   -0.356318
 C    3.474697   -0.868402    0.389268
 C    3.818667    0.028692    1.433340
 C    2.846009    0.693079    2.130612
 C    1.485986    0.488765    1.814020
 H   -4.579983   -3.212767   -0.830212
 H   -4.106522   -3.238424    0.876096
 H   -5.763193   -2.764021    0.427945
 H   -5.229721    0.579101    0.066843
 H   -5.010477   -0.146244   -1.546550
 H   -6.241161   -0.775623   -0.433336
 H   -2.059202    2.974113    0.915125
 H   -1.127719    5.190925    0.290499
 H    1.814715    3.476791   -2.012875
 H    1.024728    1.184980   -1.495415
 H   -3.143680    1.089338   -0.450167
 H    0.743807   -2.153691   -1.233330
 H    2.510994   -3.278217   -2.509115
 H    4.907272   -2.908169   -1.942276
 H    5.516928   -1.379001   -0.102568
 H    4.869187    0.182366    1.666332
 H    3.112185    1.380377    2.927633
 H    0.723113    1.029162    2.367549
