54 
4fcb_ligand_ani-2x.xyz
 C   17.554656   -8.742870  -35.914975
 C   18.084577   -9.950437  -35.147549
 C   19.548195   -9.768826  -34.711195
 C   20.072468  -10.876406  -33.855504
 N   20.179379  -10.746002  -32.550640
 C   20.621171  -11.928873  -32.054017
 C   20.795595  -12.831748  -33.091460
 N   20.445921  -12.139640  -34.256707
 C   20.547613  -12.771778  -35.508327
 C   20.257867  -12.158696  -36.732079
 C   20.387668  -12.858291  -37.915458
 C   20.812943  -14.202320  -37.906526
 C   21.103750  -14.818556  -36.713927
 C   20.981581  -14.116188  -35.499416
 N   21.307368  -14.807790  -34.345835
 C   21.218990  -14.194713  -33.198971
 C   21.577925  -14.960923  -31.965174
 O   20.902904  -14.804979  -39.124432
 C   21.354811  -16.144331  -39.144799
 C   21.423929  -16.630020  -40.571179
 C   20.883990  -15.851460  -41.628393
 C   20.961951  -16.341132  -42.902021
 C   21.574270  -17.598991  -43.133110
 C   21.699769  -18.183050  -44.420764
 C   22.303970  -19.403092  -44.572496
 C   22.810343  -20.094723  -43.442540
 C   22.702208  -19.554111  -42.189391
 C   22.080249  -18.291125  -42.005643
 N   21.995619  -17.795487  -40.739455
 C   20.850885  -12.106900  -30.589899
 H   17.647863   -7.831975  -35.312090
 H   18.109621   -8.581725  -36.846582
 H   16.498298   -8.868410  -36.173262
 H   17.987201  -10.865801  -35.743413
 H   17.476462  -10.107822  -34.248019
 H   19.620788   -8.872239  -34.089569
 H   20.204524   -9.605209  -35.573868
 H   19.926575  -11.131498  -36.778210
 H   20.164996  -12.387807  -38.866455
 H   21.437788  -15.847586  -36.638778
 H   22.384125  -14.467537  -31.411781
 H   20.721488  -15.043403  -31.287031
 H   21.902579  -15.964902  -32.245278
 H   20.671126  -16.787080  -38.575369
 H   22.352066  -16.227362  -38.697093
 H   20.427399  -14.892929  -41.405651
 H   20.561178  -15.778809  -43.743935
 H   21.307538  -17.642977  -45.280287
 H   22.400355  -19.850640  -45.558202
 H   23.287310  -21.062142  -43.579534
 H   23.080356  -20.059802  -41.306233
 H   21.912662  -12.258341  -30.361428
 H   20.513293  -11.214527  -30.057968
 H   20.302844  -12.971219  -30.200081
