79 
4fcf_ligand_ani-2x.xyz
 C    4.527554    0.337186   -0.690136
 C    4.736685   -1.047468   -1.331435
 C    4.936799   -2.085764   -0.239131
 C    6.069214   -1.649867    0.669869
 C    5.776011   -0.252039    1.218934
 C    6.917492    0.300749    2.066535
 O    3.708133   -1.429650   -2.217221
 O    5.295144   -3.327974   -0.809706
 O    5.609720    0.656424    0.129892
 O    7.021800   -0.343280    3.312924
 O    3.354855    0.372282    0.101596
 O    6.229388   -2.542441    1.756211
 C   -0.560991    1.574676   -0.441347
 C   -0.237715    0.127582   -0.792904
 C    1.075063   -0.285438   -0.149373
 C    2.155563    0.698158   -0.576020
 C    1.726168    2.128978   -0.222309
 C    2.724032    3.166691   -0.715176
 O   -1.734570    1.893066   -1.109149
 O   -1.262892   -0.739812   -0.338510
 O    1.468773   -1.585673   -0.559372
 O    0.482513    2.426307   -0.860853
 O    2.942401    3.042092   -2.105097
 C   -2.284924    3.165109   -0.794247
 C   -3.802424    3.111637   -0.905873
 C   -4.527861    2.445530    0.268711
 C   -4.195436    0.968129    0.495912
 C   -5.039669    0.293459    1.583493
 C   -6.543907    0.191300    1.299324
 C   -6.931232   -0.526084   -0.006097
 C   -6.405162   -1.968655   -0.099504
 C   -7.114883   -2.922259    0.869033
 C   -8.629709   -2.902520    0.647869
 C   -9.185694   -1.479404    0.746974
 C   -8.456524   -0.529672   -0.211063
 H    4.464487    1.106932   -1.469916
 H    5.649840   -1.002573   -1.937307
 H    4.013705   -2.176799    0.356261
 H    6.996408   -1.606513    0.074465
 H    4.862039   -0.293091    1.830129
 H    7.856654    0.238458    1.488598
 H    6.719899    1.358578    2.259059
 H    2.911819   -1.619687   -1.686553
 H    4.684749   -3.468392   -1.549009
 H    6.991269   -1.295428    3.134439
 H    6.356629   -3.426034    1.384646
 H   -0.702441    1.685025    0.653782
 H   -0.131160    0.065360   -1.888161
 H    0.970843   -0.259303    0.945667
 H    2.288007    0.630931   -1.667461
 H    1.613915    2.210724    0.870922
 H    2.363610    4.172693   -0.454873
 H    3.696782    3.017762   -0.234521
 H   -2.075063   -0.416867   -0.754119
 H    0.697795   -2.164549   -0.471845
 H    2.072264    3.104295   -2.523930
 H   -1.989034    3.462454    0.224661
 H   -1.878199    3.913700   -1.487758
 H   -4.163839    4.145135   -0.991954
 H   -4.061462    2.609576   -1.846573
 H   -5.606854    2.560539    0.102887
 H   -4.303676    3.003211    1.189983
 H   -4.313008    0.421421   -0.450510
 H   -3.137249    0.874531    0.768817
 H   -4.638478   -0.712645    1.764483
 H   -4.902379    0.837459    2.528377
 H   -7.021245   -0.310172    2.150832
 H   -6.978613    1.200865    1.277857
 H   -6.493509    0.047654   -0.836060
 H   -5.319380   -1.992342    0.059419
 H   -6.572052   -2.327925   -1.125482
 H   -6.891970   -2.631317    1.905361
 H   -6.725898   -3.940455    0.746447
 H   -9.133319   -3.562806    1.364743
 H   -8.848607   -3.302160   -0.353300
 H  -10.261011   -1.474835    0.530640
 H   -9.081301   -1.116732    1.779134
 H   -8.666644   -0.846188   -1.243101
 H   -8.846519    0.491528   -0.111326
