79 
4fcf_ligand_aiqm1.xyz
 C    4.492707   -0.424138   -1.006671
 C    5.083574   -1.830948   -0.892078
 C    5.689242   -2.032491    0.486130
 C    6.702556   -0.938435    0.733901
 C    6.029152    0.424806    0.614403
 C    7.017587    1.572956    0.738045
 O    4.174449   -2.873325   -1.175696
 O    6.367589   -3.277610    0.585415
 O    5.446032    0.548186   -0.688629
 O    7.426928    1.774352    2.075483
 O    3.375354   -0.321799   -0.141420
 O    7.274075   -1.038703    2.029829
 C   -0.494337    1.058699   -0.214824
 C   -0.222380   -0.210708   -1.009989
 C    1.090163   -0.801868   -0.552941
 C    2.193772    0.230062   -0.711008
 C    1.820306    1.540570   -0.001229
 C    2.790272    2.663542   -0.316183
 O   -1.688762    1.582158   -0.657191
 O   -1.219755   -1.190489   -0.795889
 O    1.462916   -1.940508   -1.319551
 O    0.543666    1.994476   -0.457029
 O    2.831482    2.931459   -1.706316
 C   -2.131195    2.739961    0.063337
 C   -3.622890    2.924640   -0.155946
 C   -4.515004    2.097133    0.769449
 C   -4.377871    0.587762    0.603149
 C   -5.280932   -0.207102    1.548496
 C   -6.782332    0.057557    1.391182
 C   -7.325160   -0.126357   -0.032878
 C   -7.063668   -1.524453   -0.608785
 C   -7.879358   -2.604621    0.101764
 C   -9.371673   -2.287911    0.016448
 C   -9.672244   -0.906344    0.595375
 C   -8.831256    0.169997   -0.094473
 H    4.191927   -0.221848   -2.034250
 H    5.884841   -1.895062   -1.633503
 H    4.900339   -1.976081    1.245294
 H    7.491358   -1.019622   -0.028121
 H    5.261088    0.522002    1.393444
 H    7.874673    1.377885    0.078135
 H    6.534723    2.490929    0.407034
 H    3.261899   -2.574007   -1.072691
 H    5.768609   -3.947321    0.246033
 H    7.701506    0.917322    2.416702
 H    7.544628   -1.952384    2.148138
 H   -0.531359    0.845503    0.867850
 H   -0.157048    0.061378   -2.068050
 H    0.987802   -1.083626    0.501406
 H    2.334906    0.428873   -1.779101
 H    1.795071    1.371420    1.085455
 H    2.496330    3.552870    0.250575
 H    3.797076    2.366899   -0.028562
 H   -2.046605   -0.836808   -1.128014
 H    0.712923   -2.540997   -1.336048
 H    1.959697    3.240273   -1.966783
 H   -1.910688    2.602534    1.129836
 H   -1.570739    3.611822   -0.286838
 H   -3.843261    3.983231    0.003227
 H   -3.855609    2.700471   -1.200263
 H   -5.554815    2.387098    0.600777
 H   -4.290134    2.358359    1.810245
 H   -4.599012    0.316755   -0.436057
 H   -3.337149    0.294837    0.780928
 H   -5.083815   -1.273845    1.407063
 H   -4.996054    0.020827    2.581312
 H   -7.326002   -0.594261    2.080194
 H   -7.009108    1.081702    1.712025
 H   -6.815502    0.600940   -0.675881
 H   -5.995544   -1.756610   -0.575409
 H   -7.346492   -1.514560   -1.667920
 H   -7.577529   -2.664996    1.152501
 H   -7.673010   -3.582157   -0.340779
 H   -9.958369   -3.053197    0.530108
 H   -9.677340   -2.306307   -1.035511
 H  -10.734357   -0.673090    0.485102
 H   -9.465324   -0.910920    1.670347
 H   -9.130776    0.225060   -1.146682
 H   -9.035243    1.151579    0.343659
