66 
4feq_ligand_dft.xyz
 N    2.074815   -1.049108    0.103631
 N    1.360427   -3.325673    0.415271
 C   -1.499279   -1.353661   -1.040872
 C    2.241405   -2.306838    0.519909
 C    1.750296    1.543406   -0.869845
 C    1.263115    2.751253   -1.676327
 C    1.906923    2.137346    0.537856
 C    4.501776   -1.664741    1.260965
 C   -4.572535   -0.911219   -0.280999
 C   -5.992513   -0.608783   -0.760418
 C   -7.655721    0.045161    0.936973
 C   -6.438248    1.800665   -0.079726
 C    8.393292    0.728600    0.382380
 C   -8.195470    1.347572    1.518509
 C   -7.125989    2.387041    1.166307
 O   -8.043470   -1.084517    1.173344
 N   -6.658420    0.373988    0.061883
 C   -3.875100   -1.923773   -1.190097
 N   -2.516485   -2.225413   -0.776227
 O   -1.713652   -0.326008   -1.695301
 C   -0.164005   -1.703317   -0.517038
 C    0.888865   -0.734860   -0.438722
 N    0.726689    0.510339   -0.908331
 C    0.666774    3.034744    0.702977
 C    0.279645    3.481194   -0.733889
 C    0.187608   -2.983219   -0.098501
 N    3.422774   -2.612552    1.108436
 C    5.266130   -1.397731   -0.049058
 C    6.210290   -0.235177    0.101844
 C    5.714591    1.068045    0.181196
 C    6.600595    2.123210    0.356227
 N    7.924838    1.975312    0.457151
 C    7.589811   -0.395344    0.209770
 H    2.688417    1.128214   -1.252882
 H    0.817246    2.466297   -2.634637
 H    2.127000    3.387675   -1.895610
 H    2.822574    2.742673    0.561395
 H    1.997465    1.364257    1.304400
 H    5.184295   -2.045720    2.026552
 H    4.084632   -0.723299    1.630489
 H   -4.621177   -1.296248    0.744514
 H   -3.973648    0.005843   -0.265990
 H   -6.606023   -1.514520   -0.726853
 H   -5.973357   -0.249495   -1.798591
 H   -5.368217    2.031365   -0.114051
 H   -6.890043    2.171025   -1.012199
 H    9.473010    0.619652    0.464360
 H   -8.384686    1.239845    2.588106
 H   -9.154927    1.560437    1.032174
 H   -7.530949    3.384163    0.980636
 H   -6.399193    2.465132    1.980795
 H   -3.826657   -1.535398   -2.211020
 H   -4.433522   -2.865764   -1.217536
 H   -2.397637   -2.885074   -0.023761
 H   -0.155765    0.670586   -1.387139
 H    0.863991    3.883256    1.364087
 H   -0.149300    2.460825    1.152523
 H   -0.753104    3.196216   -0.959246
 H    0.341736    4.565720   -0.860893
 H   -0.520628   -3.804471   -0.207721
 H    3.551787   -3.584211    1.341408
 H    4.526329   -1.172337   -0.823648
 H    5.806077   -2.301100   -0.353161
 H    4.645918    1.251325    0.107264
 H    6.229702    3.144609    0.417455
 H    8.039622   -1.382970    0.155203
