66 
4feq_ligand_ani-2x.xyz
 N    8.994579  -10.345511   15.219756
 N   10.965180  -11.206969   14.153187
 C    9.185275  -14.063347   15.865610
 C   10.126019  -10.212894   14.516425
 C    6.571417  -10.642072   16.475400
 C    5.189820  -11.187761   16.847868
 C    6.934944   -9.796690   17.707655
 C    9.687513   -7.791679   14.431472
 C    9.886221  -16.444768   17.886294
 C    9.642042  -17.879667   18.347523
 C   10.364858  -19.059506   20.380270
 C    8.838116  -17.288965   20.685172
 C    6.236312   -4.590198   14.196654
 C   10.031682  -19.024758   21.865580
 C    9.381656  -17.654318   22.073950
 O   11.057698  -19.882111   19.811009
 N    9.728773  -18.003998   19.786539
 C    9.973225  -16.323877   16.362098
 N   10.203253  -14.968480   15.894326
 O    8.054864  -14.389693   16.238283
 C    9.513504  -12.702352   15.371718
 C    8.667022  -11.581989   15.622673
 N    7.504050  -11.729009   16.282521
 C    6.489130  -10.671231   18.889853
 C    5.249462  -11.445880   18.373653
 C   10.637003  -12.410892   14.599700
 N   10.472952   -8.964915   14.124906
 C    8.503106   -7.564360   13.477303
 C    7.475241   -6.641077   14.074860
 C    6.762103   -7.044278   15.204475
 C    5.819919   -6.185930   15.754513
 N    5.547270   -4.970710   15.272559
 C    7.197200   -5.376871   13.565963
 H    6.559534  -10.047921   15.556561
 H    4.936276  -12.078894   16.263295
 H    4.431470  -10.429408   16.620118
 H    6.350033   -8.865876   17.687268
 H    7.998347   -9.535329   17.720592
 H   10.347673   -6.917446   14.424608
 H    9.313686   -7.912299   15.453104
 H   10.810073  -16.081996   18.352703
 H    9.066849  -15.800441   18.229145
 H   10.399868  -18.560658   17.948341
 H    8.660268  -18.234396   17.989173
 H    8.874526  -16.211721   20.494260
 H    7.794972  -17.616066   20.555078
 H    6.009388   -3.597567   13.808836
 H   10.932900  -19.188636   22.460761
 H    9.343723  -19.852266   22.073744
 H    8.593024  -17.662948   22.830306
 H   10.131226  -16.918531   22.381129
 H    9.034325  -16.661903   15.913252
 H   10.781538  -16.950722   15.969347
 H   11.154530  -14.642743   15.834533
 H    7.238156  -12.680998   16.513927
 H    6.275536  -10.078519   19.784491
 H    7.288963  -11.370786   19.153866
 H    5.340829  -12.514007   18.594484
 H    4.327171  -11.104070   18.854952
 H   11.314564  -13.209209   14.287821
 H   11.271983   -8.908266   13.513786
 H    8.033613   -8.536762   13.283694
 H    8.863092   -7.180837   12.515678
 H    6.950516   -8.020920   15.648254
 H    5.253321   -6.483574   16.637113
 H    7.721816   -5.002131   12.690208
