66 
4feq_ligand_xtb.xyz
 N    8.878583  -10.344274   15.613823
 N   10.741288  -11.385298   14.567720
 C    8.718047  -14.022579   16.306888
 C   10.007538  -10.318168   14.919635
 C    6.464793  -10.413974   16.987852
 C    5.204778  -10.433280   16.089776
 C    5.939157  -10.421261   18.435803
 C    9.716550   -7.910596   14.677564
 C    9.943026  -16.632575   18.087626
 C    9.596541  -18.032609   18.599757
 C   11.319119  -19.122260   19.967198
 C    9.707946  -17.862260   21.118934
 C    7.109819   -4.325802   13.575192
 C   11.643338  -19.251142   21.448505
 C   10.857000  -18.115667   22.101058
 O   11.899580  -19.645891   19.042884
 N   10.234653  -18.324585   19.856050
 C    9.287520  -16.367999   16.730891
 N    9.597258  -15.051353   16.229700
 O    7.593549  -14.194651   16.777317
 C    9.184716  -12.726306   15.798188
 C    8.441549  -11.527907   16.052886
 N    7.300854  -11.559885   16.741218
 C    4.492712  -10.897989   18.328948
 C    4.018119  -10.245049   17.034764
 C   10.316843  -12.552082   15.011639
 N   10.483526   -9.117062   14.528244
 C    8.571987   -7.810917   13.649926
 C    7.727482   -6.607577   13.930657
 C    6.757714   -6.636781   14.928099
 C    6.020414   -5.492467   15.179406
 N    6.187629   -4.357618   14.520972
 C    7.903149   -5.412653   13.242827
 H    7.088028   -9.539004   16.791318
 H    5.139808  -11.406190   15.600136
 H    5.241218   -9.670309   15.313738
 H    5.966182   -9.409856   18.842704
 H    6.548319  -11.061734   19.071626
 H   10.387414   -7.054264   14.580172
 H    9.287101   -7.917588   15.682180
 H   11.028408  -16.549581   17.996657
 H    9.599574  -15.877932   18.798155
 H    9.953265  -18.779975   17.885160
 H    8.512311  -18.133974   18.713697
 H    9.431007  -16.807038   21.062089
 H    8.812466  -18.439241   21.388123
 H    7.215997   -3.380354   13.058966
 H   12.716263  -19.195837   21.619356
 H   11.296787  -20.231099   21.782580
 H   10.496405  -18.367789   23.096118
 H   11.482554  -17.225678   22.176590
 H    8.200166  -16.418432   16.827036
 H    9.619240  -17.115112   16.003579
 H   10.549013  -14.875351   15.956008
 H    6.963371  -12.489727   16.985227
 H    3.893337  -10.610909   19.191504
 H    4.461347  -11.983844   18.229989
 H    3.105363  -10.692959   16.645363
 H    3.834954   -9.182455   17.203484
 H   10.919578  -13.391431   14.683242
 H   11.237879   -9.148449   13.861398
 H    7.972548   -8.718538   13.738959
 H    8.990161   -7.758657   12.642879
 H    6.582750   -7.540522   15.491396
 H    5.254854   -5.478175   15.944535
 H    8.640755   -5.332077   12.458292
