40 
4fev_ligand_xtb.xyz
 N  -20.991731  -27.091767  -17.721453
 C  -21.988749  -25.173186  -20.495308
 N  -21.551447  -25.319131  -19.265764
 C  -21.390698  -26.601053  -18.912101
 C  -21.636246  -27.711131  -19.758817
 C  -22.170243  -27.394163  -21.024345
 N  -22.316659  -26.115415  -21.368652
 N  -20.959871  -28.428612  -17.744795
 C  -21.327270  -28.837680  -18.943409
 N  -22.538969  -28.320340  -21.935654
 C  -21.362680  -30.254873  -19.277639
 C  -20.958737  -30.710013  -20.531937
 C  -21.001321  -32.057334  -20.832205
 C  -21.440802  -32.986823  -19.895432
 C  -21.820852  -32.530712  -18.639477
 C  -21.780190  -31.185128  -18.329716
 C  -21.485517  -34.443578  -20.242924
 C  -20.613383  -26.326404  -16.542795
 C  -20.235355  -27.301704  -15.432314
 C  -19.424287  -25.436581  -16.913053
 C  -21.809573  -25.466395  -16.127321
 H  -22.121615  -24.154648  -20.837114
 H  -22.639598  -29.281640  -21.659960
 H  -23.023732  -27.985548  -22.750517
 H  -20.575324  -30.008565  -21.259437
 H  -20.681421  -32.397813  -21.807244
 H  -22.152528  -33.239434  -17.893818
 H  -22.071682  -30.835652  -17.351430
 H  -22.136579  -34.610661  -21.100510
 H  -20.490819  -34.800429  -20.507854
 H  -21.854036  -35.032577  -19.407019
 H  -19.410174  -27.933453  -15.748623
 H  -19.941757  -26.748219  -14.544650
 H  -21.077789  -27.943112  -15.189172
 H  -19.123848  -24.840643  -16.055693
 H  -18.579983  -26.045955  -17.228601
 H  -19.702799  -24.771292  -17.726222
 H  -22.662921  -26.096375  -15.884864
 H  -21.554987  -24.872445  -15.253901
 H  -22.083228  -24.800114  -16.941261
