72 
4fhh_ligand_aiqm1.xyz
 C    3.489842    1.032328   -1.276324
 C    3.927354    2.192934   -0.650614
 C    3.757147    2.373340    0.725237
 C    3.138969    1.356036    1.452525
 C    2.692034    0.169342    0.856565
 C    2.877864    0.036354   -0.519073
 C    2.038264   -0.981585    1.645681
 C    0.648355   -1.239563    1.035666
 C    1.854280   -0.609616    3.138154
 C    2.949911   -2.228511    1.526786
 C    4.334207   -2.052429    2.149964
 C    1.245957   -1.725398    3.986965
 C    0.250850   -2.481571    0.522911
 C   -1.024132   -2.705424    0.003579
 C   -1.935538   -1.642912   -0.006856
 C   -1.420966   -4.051990   -0.531166
 C   -1.567660   -0.395040    0.488056
 C   -0.286876   -0.206377    1.000764
 O    4.545031    3.229344   -1.309664
 O    6.445685    6.349790   -2.749634
 C    4.728515    3.093292   -2.700121
 C    5.408440    4.336328   -3.218367
 N    5.957956    5.134819   -2.286252
 O    5.510057    4.584875   -4.413085
 C   -6.573757   -0.495546   -1.252251
 C   -7.039968   -0.007694    0.122129
 C   -6.178490    0.703493   -2.121533
 C   -7.720885   -1.241294   -1.938172
 C   -4.128067   -0.870999   -0.536681
 O   -3.173232   -1.922815   -0.525104
 C   -5.394002   -1.470927   -1.124727
 O   -5.823409   -2.564147   -0.323531
 C    4.236656    3.633651    1.387341
 H    3.615301    0.891385   -2.340880
 H    3.018335    1.521705    2.514179
 H    2.531955   -0.859515   -1.018795
 H    1.219709    0.280091    3.207139
 H    2.823120   -0.323256    3.557809
 H    2.449203   -3.080870    1.994103
 H    3.062646   -2.486895    0.468703
 H    4.864394   -1.198613    1.722002
 H    4.941225   -2.943741    1.978585
 H    4.273043   -1.901713    3.229201
 H    1.085279   -1.377199    5.009418
 H    0.283687   -2.054496    3.589359
 H    1.902825   -2.595676    4.037715
 H    0.932613   -3.321282    0.517806
 H   -1.687008   -3.997056   -1.588421
 H   -0.603158   -4.763193   -0.417322
 H   -2.291203   -4.442686   -0.002128
 H   -2.264852    0.431430    0.478968
 H   -0.013756    0.772787    1.374996
 H    6.290588    6.260910   -3.708795
 H    3.779059    2.987333   -3.230831
 H    5.360028    2.233548   -2.944817
 H    5.630630    5.159613   -1.335813
 H   -7.936432    0.606663    0.008406
 H   -6.282696    0.606402    0.617739
 H   -7.275758   -0.852237    0.767574
 H   -7.064496    1.304069   -2.336072
 H   -5.754704    0.376121   -3.074874
 H   -5.453963    1.354915   -1.625982
 H   -8.016177   -2.110044   -1.351762
 H   -8.584746   -0.581403   -2.050122
 H   -7.419699   -1.581477   -2.932649
 H   -3.768146   -0.039993   -1.147635
 H   -4.301158   -0.508697    0.479037
 H   -5.132938   -1.835312   -2.130060
 H   -5.070617   -3.147390   -0.206528
 H    3.745020    4.513242    0.966336
 H    5.311239    3.766145    1.248331
 H    4.030916    3.604500    2.456614
