72 
4fhi_ligand_xtb.xyz
 C    3.495784    0.036424    0.868621
 C    4.274530    1.108621    0.462441
 C    4.177200    1.576162   -0.852845
 C    3.300677    0.954348   -1.725407
 C    2.510507   -0.120273   -1.335777
 C    2.627959   -0.565013   -0.025412
 C    1.556559   -0.855982   -2.267471
 C    0.230598   -1.002348   -1.531675
 C    1.276126   -0.058382   -3.559778
 C    2.197926   -2.224158   -2.586513
 C    3.602203   -2.130356   -3.175100
 C    0.200985   -0.675966   -4.448514
 C   -0.486538   -2.190186   -1.453918
 C   -1.702987   -2.272688   -0.799365
 C   -2.233260   -1.125573   -0.195196
 C   -2.467430   -3.559523   -0.730470
 C   -1.530443    0.068279   -0.265132
 C   -0.316906    0.121264   -0.926974
 O    5.168013    1.780274    1.265444
 O    7.843469    4.034441    3.090278
 C    5.315926    1.364164    2.598906
 C    6.344439    2.236463    3.300001
 N    6.888649    3.184578    2.533602
 O    6.662081    2.097632    4.468592
 C   -6.190846    0.390023    2.387244
 C   -5.392890    0.994999    3.544048
 C   -7.434307   -0.307531    2.948393
 C   -6.629547    1.490624    1.419456
 C   -4.036622   -0.167833    1.057296
 O   -3.436238   -1.286894    0.434244
 C   -5.357016   -0.681667    1.649138
 O   -6.141012   -1.235745    0.616461
 C    5.023227    2.734461   -1.286637
 H    3.552037   -0.341959    1.877065
 H    3.248486    1.332430   -2.733897
 H    2.023535   -1.392852    0.314215
 H    2.194342    0.034273   -4.140038
 H    0.952183    0.945366   -3.277206
 H    1.564719   -2.769934   -3.286009
 H    2.252034   -2.799763   -1.660256
 H    4.264606   -1.577503   -2.513300
 H    3.594821   -1.640440   -4.145160
 H    4.008527   -3.130721   -3.309498
 H    0.510752   -1.644186   -4.832788
 H    0.011974   -0.024027   -5.298910
 H   -0.729246   -0.802857   -3.900130
 H   -0.105174   -3.088956   -1.911955
 H   -3.384605   -3.484142   -1.314498
 H   -2.751032   -3.773444    0.298499
 H   -1.874501   -4.383873   -1.117457
 H   -1.916494    0.965502    0.192611
 H    0.215842    1.060278   -0.961029
 H    7.912078    3.716007    4.014021
 H    4.371681    1.445471    3.155679
 H    5.661198    0.322456    2.662063
 H    6.679076    3.362076    1.565827
 H   -4.574239    1.612818    3.183667
 H   -4.985149    0.214189    4.182436
 H   -6.045596    1.622066    4.146741
 H   -7.983411   -0.783759    2.141754
 H   -8.083059    0.412911    3.440329
 H   -7.150795   -1.068931    3.671524
 H   -5.783396    2.092063    1.095901
 H   -7.100572    1.044805    0.548021
 H   -7.345762    2.148110    1.906002
 H   -3.385111    0.225902    1.844731
 H   -4.234487    0.613160    0.313462
 H   -5.097544   -1.475520    2.371636
 H   -5.551194   -1.784267    0.084943
 H    4.835904    2.981385   -2.327958
 H    4.808017    3.608171   -0.672527
 H    6.079037    2.494758   -1.165593
