72 
4fhi_ligand_ani-2x.xyz
 C    3.672876    0.009143    0.843422
 C    4.364797    1.148989    0.445434
 C    4.150835    1.701388   -0.828708
 C    3.235345    1.068667   -1.666059
 C    2.527863   -0.077680   -1.294517
 C    2.761217   -0.590579   -0.021485
 C    1.543592   -0.825013   -2.220795
 C    0.206960   -0.990314   -1.464719
 C    1.270122   -0.013853   -3.516443
 C    2.162564   -2.205232   -2.571955
 C    3.557633   -2.162151   -3.192093
 C    0.197585   -0.589337   -4.438960
 C   -0.455716   -2.211108   -1.305970
 C   -1.683347   -2.326974   -0.660258
 C   -2.268403   -1.156347   -0.151211
 C   -2.365912   -3.662372   -0.510574
 C   -1.631410    0.072077   -0.288903
 C   -0.401847    0.146126   -0.938615
 O    5.268123    1.796518    1.247020
 O    7.877763    3.961483    3.305004
 C    5.551593    1.213676    2.499254
 C    6.618861    2.019939    3.205664
 N    6.822915    3.264711    2.740504
 O    7.233896    1.596487    4.179429
 C   -6.282785    0.412234    2.290211
 C   -5.526591    1.154495    3.398753
 C   -7.508376   -0.283917    2.896629
 C   -6.751222    1.409929    1.223106
 C   -4.098762   -0.167539    1.028194
 O   -3.476754   -1.315147    0.466210
 C   -5.380686   -0.676747    1.676412
 O   -6.126536   -1.387297    0.702645
 C    4.882628    2.936826   -1.284784
 H    3.827982   -0.429165    1.823387
 H    3.088930    1.502275   -2.651597
 H    2.208230   -1.464185    0.322621
 H    2.209726    0.094183   -4.071625
 H    0.962661    0.997073   -3.221566
 H    1.480307   -2.738636   -3.244851
 H    2.215962   -2.794579   -1.648222
 H    4.267361   -1.663759   -2.522657
 H    3.563623   -1.631796   -4.150718
 H    3.925087   -3.177569   -3.374908
 H    0.470432   -1.581319   -4.815555
 H    0.050264    0.063324   -5.306054
 H   -0.761586   -0.675279   -3.916584
 H   -0.018037   -3.123414   -1.702566
 H   -3.363137   -3.656758   -0.966119
 H   -2.498595   -3.928671    0.544502
 H   -1.778479   -4.452233   -0.989630
 H   -2.078373    0.980576    0.101796
 H    0.097627    1.112187   -1.009591
 H    8.156120    3.340817    4.013155
 H    4.660010    1.194604    3.140358
 H    5.928486    0.189163    2.399852
 H    6.624041    3.546118    1.794688
 H   -4.699778    1.754907    3.003139
 H   -5.116782    0.452824    4.135672
 H   -6.199279    1.840563    3.926799
 H   -8.083906   -0.802451    2.125361
 H   -8.160589    0.448384    3.385590
 H   -7.206595   -1.021766    3.650392
 H   -5.925560    2.025168    0.846660
 H   -7.204574    0.885564    0.376431
 H   -7.494617    2.093662    1.649494
 H   -3.430813    0.293394    1.763856
 H   -4.323411    0.553626    0.230851
 H   -5.085777   -1.368936    2.487336
 H   -5.474898   -1.916442    0.222085
 H    4.600412    3.189747   -2.311944
 H    4.649554    3.801007   -0.651785
 H    5.969453    2.796412   -1.258999
