17 
4fht_ligand_xtb.xyz
 C   33.341398   39.628149   23.260767
 C   32.350992   40.307760   22.552330
 C   32.509365   41.646316   22.238134
 O   31.538130   42.297422   21.555062
 C   33.678878   42.316755   22.631503
 O   33.775030   43.636186   22.283307
 C   34.657623   41.642097   23.341421
 C   34.487980   40.308129   23.659282
 C   33.231580   38.190609   23.636461
 O   32.340801   37.452195   22.950431
 O   33.904050   37.689313   24.496238
 H   31.419873   39.846714   22.255098
 H   31.816565   43.215894   21.433845
 H   34.604759   44.000044   22.611283
 H   35.552497   42.166415   23.646628
 H   35.239199   39.771862   24.216409
 H   31.897281   37.960338   22.258502
