17 
4fht_ligand_aiqm1.xyz
 C   33.337336   39.631794   23.272697
 C   32.336781   40.317677   22.573410
 C   32.506055   41.655574   22.250227
 O   31.532702   42.318773   21.574859
 C   33.685599   42.309317   22.625784
 O   33.760552   43.622682   22.252966
 C   34.672716   41.638292   23.331024
 C   34.495719   40.298449   23.660745
 C   33.208199   38.191597   23.651243
 O   32.348326   37.442701   22.921524
 O   33.833798   37.688481   24.543573
 H   31.393835   39.852905   22.306822
 H   31.820524   43.230608   21.459087
 H   34.579489   44.003642   22.575169
 H   35.574453   42.161352   23.628582
 H   35.243464   39.758472   24.220693
 H   32.016451   37.953884   22.178296
