25 
4fic_ligand_xtb.xyz
 C   13.525551  -38.814108   -0.788271
 C   14.450213  -39.559608   -0.083458
 C   15.802424  -39.280988   -0.198856
 C   16.223431  -38.256757   -1.030683
 C   15.301618  -37.507011   -1.737385
 C   13.938691  -37.772496   -1.618352
 C   12.926249  -36.999403   -2.347323
 N   11.728776  -37.598457   -2.520424
 C   10.774764  -36.981004   -3.160060
 C   10.945034  -35.694068   -3.680340
 N   10.170150  -34.851341   -4.350133
 C   10.954655  -33.773329   -4.525593
 N   10.537720  -32.673397   -5.170550
 N   12.186475  -33.882049   -4.004316
 N   12.182970  -35.096206   -3.472028
 C   13.169296  -35.722621   -2.816909
 H   12.470090  -39.021769   -0.710658
 H   14.117050  -40.361481    0.558940
 H   16.526513  -39.862830    0.352107
 H   17.277528  -38.043412   -1.133009
 H   15.649453  -36.727832   -2.398712
 H    9.833715  -37.497292   -3.277848
 H    9.607338  -32.653310   -5.540199
 H   11.160137  -31.896442   -5.276550
 H   14.088058  -35.177490   -2.679487
