25 
4fic_ligand_ani-2x.xyz
 C   13.532105  -38.822905   -0.734156
 C   14.488281  -39.551743   -0.038563
 C   15.842250  -39.276931   -0.210735
 C   16.234655  -38.268754   -1.086115
 C   15.278545  -37.532149   -1.776242
 C   13.916283  -37.796770   -1.601759
 C   12.887525  -37.003695   -2.324261
 N   11.676920  -37.625898   -2.528722
 C   10.752581  -37.004183   -3.209719
 C   10.939163  -35.692942   -3.708858
 N   10.169690  -34.852159   -4.408851
 C   10.972296  -33.773716   -4.520540
 N   10.579711  -32.651620   -5.176400
 N   12.181726  -33.858299   -3.952397
 N   12.142748  -35.097938   -3.435521
 C   13.129406  -35.723022   -2.750064
 H   12.475669  -39.041599   -0.617191
 H   14.174455  -40.342528    0.638352
 H   16.588700  -39.850062    0.332464
 H   17.289409  -38.050113   -1.231297
 H   15.603551  -36.760721   -2.470140
 H    9.807014  -37.508922   -3.384417
 H    9.668132  -32.616978   -5.594857
 H   11.197280  -31.863191   -5.247822
 H   14.019805  -35.137862   -2.572288
