25 
4fic_ligand_aiqm1.xyz
 C   13.541183  -38.890507   -0.837265
 C   14.489852  -39.636368   -0.149053
 C   15.838180  -39.294953   -0.220842
 C   16.231159  -38.205270   -0.992354
 C   15.284563  -37.453507   -1.682341
 C   13.926430  -37.786330   -1.606992
 C   12.896721  -36.999914   -2.319649
 N   11.660639  -37.580674   -2.450922
 C   10.712152  -36.933976   -3.076018
 C   10.913123  -35.644082   -3.619310
 N   10.124429  -34.795452   -4.286796
 C   10.946358  -33.744081   -4.489432
 N   10.519990  -32.589625   -5.094581
 N   12.197220  -33.864220   -4.012999
 N   12.149639  -35.087947   -3.457776
 C   13.154818  -35.741957   -2.814815
 H   12.493929  -39.153447   -0.792888
 H   14.177927  -40.486822    0.442733
 H   16.577191  -39.875499    0.314973
 H   17.277476  -37.938781   -1.062386
 H   15.619723  -36.623470   -2.291267
 H    9.743805  -37.402747   -3.173390
 H    9.726444  -32.720414   -5.698554
 H   11.257819  -32.045189   -5.509365
 H   14.087129  -35.209470   -2.728812
