68 
4flj_ligand_xtb.xyz
 N   -1.336096   -1.017160   -0.342248
 O    2.595634   -2.333539   -1.472046
 N   -4.599598    0.250364   -0.374592
 O    1.499965   -3.688664    2.433092
 O    3.744445   -3.067224    0.934791
 O   -0.121320   -2.730998   -1.162288
 O   -3.068385    0.587204    1.238670
 O    0.208864   -0.918325    1.774080
 C    4.988364    1.675362   -0.152499
 C    3.815248    0.730962   -0.141657
 C    3.806427   -0.539173   -0.504600
 C    2.589342   -1.413343   -0.402176
 C    2.639848   -2.190384    0.934480
 C    1.370185   -3.026468    1.192912
 C    0.076136   -2.197227    1.197143
 C    6.262967    1.025207   -0.688341
 C    5.226358    2.147750    1.288109
 C    4.625176    2.881047   -1.029209
 C   -0.460353   -2.014589   -0.229525
 C   -1.995465   -0.692094   -1.582491
 C   -3.360111   -1.389886   -1.716871
 C   -4.118883   -0.908546   -2.958409
 C   -4.613082    0.529897   -2.799053
 C   -5.396241    0.699841   -1.492478
 C   -4.237505   -1.147943   -0.483068
 C   -3.945237    1.035793    0.512356
 C   -4.365869    2.470295    0.583297
 C   -3.559870    3.383023    1.460216
 C   -3.446255    3.500803   -0.022800
 C    0.171863   -0.915848    3.185537
 H   -1.602855   -0.484546    0.483229
 H    1.688611   -2.667519   -1.587399
 H    2.420703   -3.982196    2.487479
 H    3.828206   -3.381422    0.020711
 H    2.895799    1.173776    0.224259
 H    4.682515   -1.043176   -0.879450
 H    1.684583   -0.791915   -0.408452
 H    2.783208   -1.489380    1.762775
 H    1.273080   -3.780246    0.393364
 H   -0.673104   -2.788032    1.751848
 H    6.549699    0.177944   -0.070775
 H    7.078013    1.746073   -0.680467
 H    6.118388    0.682774   -1.709876
 H    4.336418    2.630022    1.686438
 H    6.048876    2.859110    1.322877
 H    5.472564    1.301368    1.925263
 H    5.437673    3.604605   -1.034472
 H    3.729381    3.372021   -0.655326
 H    4.439796    2.560435   -2.051920
 H   -1.348795   -1.018039   -2.401323
 H   -2.111344    0.392250   -1.624612
 H   -3.174183   -2.464870   -1.798503
 H   -3.478328   -0.983289   -3.838294
 H   -4.979362   -1.563104   -3.115670
 H   -3.768599    1.220339   -2.800532
 H   -5.257808    0.793214   -3.638697
 H   -6.307173    0.090673   -1.529081
 H   -5.681169    1.742679   -1.367915
 H   -3.718816   -1.439336    0.430412
 H   -5.158266   -1.734445   -0.569556
 H   -5.431828    2.645355    0.519489
 H   -4.080478    4.153829    2.006592
 H   -2.737564    2.932639    1.994401
 H   -3.893216    4.349815   -0.518619
 H   -2.538233    3.149530   -0.489939
 H    0.356186    0.112700    3.488764
 H    0.934106   -1.573689    3.608907
 H   -0.813235   -1.232882    3.546138
