67 
4fll_ligand_xtb.xyz
 O   -1.925069    2.788925    1.929326
 C   -1.226422    3.011805    0.951360
 C    0.240957    3.440663    1.081327
 O    0.920455    3.039239   -0.088062
 C    2.137528    3.721080   -0.312048
 C    0.832650    2.892806    2.391709
 O    1.921674    3.700871    2.781841
 C    1.303415    1.425549    2.306889
 O    1.773776    1.047611    3.581759
 C    0.197708    0.451993    1.844466
 O   -0.838732    0.413994    2.799002
 C    0.749367   -0.944841    1.722914
 C    1.669634   -1.307953    0.847294
 C    2.269658   -2.678929    0.678329
 C    1.723688   -3.690097    1.685192
 C    3.787938   -2.551271    0.859925
 C    1.967226   -3.167917   -0.745282
 N   -1.670076    2.944184   -0.306559
 C   -2.988849    2.439229   -0.622098
 C   -3.053299    0.908026   -0.613562
 C   -2.504950    0.252887   -1.895641
 C   -1.098771    0.658987   -2.215759
 C    0.105623    0.078020   -1.957389
 C    1.086359    0.906945   -2.556508
 C    0.409426    1.927424   -3.140876
 O   -0.916379    1.787540   -2.944868
 C   -2.590064   -1.255159   -1.812729
 C   -2.055899   -1.953507   -0.735564
 C   -2.122937   -3.334596   -0.691657
 C   -2.722647   -4.039907   -1.720950
 C   -3.258383   -3.353406   -2.795847
 C   -3.191206   -1.971543   -2.838819
 H    0.257813    4.540564    1.168975
 H    2.559965    3.287243   -1.216264
 H    2.827681    3.596128    0.524103
 H    1.957791    4.791724   -0.462491
 H    0.040129    2.968058    3.155463
 H    2.392863    3.209057    3.469434
 H    2.154817    1.364605    1.622249
 H    1.003030    0.713167    4.064904
 H   -0.164544    0.794973    0.862891
 H   -1.381910    1.217926    2.719684
 H    0.322898   -1.634070    2.434528
 H    2.064827   -0.567050    0.162829
 H    2.190468   -4.659716    1.525275
 H    1.936234   -3.371375    2.702408
 H    0.648959   -3.805946    1.570119
 H    4.205978   -1.861604    0.129919
 H    4.017165   -2.178028    1.855436
 H    4.267904   -3.519162    0.732468
 H    0.893692   -3.268408   -0.895434
 H    2.355181   -2.470096   -1.484265
 H    2.429575   -4.137831   -0.915950
 H   -0.986886    3.036866   -1.043471
 H   -3.664713    2.822530    0.147004
 H   -3.283503    2.835491   -1.595274
 H   -2.511162    0.547438    0.259671
 H   -4.095225    0.601671   -0.504308
 H   -3.127711    0.596981   -2.730724
 H    0.276721   -0.828370   -1.417773
 H    2.145980    0.753415   -2.554860
 H    0.731959    2.780299   -3.704591
 H   -1.579576   -1.426052    0.076548
 H   -1.705957   -3.863091    0.153222
 H   -2.772672   -5.117989   -1.684428
 H   -3.730094   -3.893524   -3.603554
 H   -3.611278   -1.443774   -3.683556
