67 
4fll_ligand_ani-2x.xyz
 O   -1.647588    2.384764    2.084005
 C   -1.248297    2.823918    1.002782
 C    0.139344    3.457419    0.831864
 O    0.585006    3.168754   -0.477028
 C    1.544444    4.088826   -0.967826
 C    1.110935    3.035078    1.929484
 O    2.117109    4.028461    1.995276
 C    1.800048    1.676109    1.741803
 O    2.715241    1.545321    2.825866
 C    0.859741    0.469845    1.720594
 O    0.178385    0.399501    2.964666
 C    1.570891   -0.847050    1.512976
 C    2.877436   -1.022026    1.326623
 C    3.597835   -2.314868    1.024583
 C    2.651715   -3.501815    0.823899
 C    4.540903   -2.609838    2.200738
 C    4.428148   -2.098068   -0.247570
 N   -2.008420    2.824541   -0.105720
 C   -3.331284    2.221364   -0.093081
 C   -3.355558    0.693613   -0.196086
 C   -2.935975    0.114946   -1.572605
 C   -1.470608   -0.172914   -1.710586
 C   -0.735408   -1.316449   -1.658441
 C    0.626150   -0.934632   -1.844213
 C    0.623129    0.413990   -1.983935
 O   -0.648104    0.886470   -1.929945
 C   -3.714626   -1.144198   -1.920209
 C   -4.001278   -2.132519   -0.977704
 C   -4.677058   -3.292812   -1.348605
 C   -5.075010   -3.481728   -2.668861
 C   -4.790151   -2.503853   -3.617712
 C   -4.111746   -1.347481   -3.242269
 H    0.016791    4.547880    0.932298
 H    1.663762    3.884616   -2.035163
 H    2.507767    3.980287   -0.456717
 H    1.190640    5.122169   -0.842583
 H    0.553917    3.012607    2.877240
 H    2.809137    3.638262    2.552497
 H    2.387336    1.713457    0.819701
 H    2.172224    1.212679    3.560228
 H    0.140324    0.579808    0.898672
 H   -0.572401    1.016089    2.909165
 H    0.897637   -1.699813    1.563601
 H    3.561786   -0.175559    1.421970
 H    3.226929   -4.406376    0.596159
 H    2.060589   -3.701716    1.725166
 H    1.959053   -3.327455   -0.007900
 H    5.229080   -1.771645    2.359085
 H    3.975000   -2.762039    3.126754
 H    5.137094   -3.509319    2.007826
 H    3.785553   -1.867899   -1.104723
 H    5.119988   -1.259092   -0.113040
 H    5.017536   -2.989584   -0.491498
 H   -1.539628    2.952835   -0.989969
 H   -3.809619    2.514305    0.845185
 H   -3.916066    2.662931   -0.909124
 H   -2.741598    0.268500    0.609873
 H   -4.389891    0.384023   -0.002244
 H   -3.182685    0.868583   -2.333687
 H   -1.140771   -2.309927   -1.511197
 H    1.483458   -1.587836   -1.883138
 H    1.388720    1.160642   -2.109274
 H   -3.716360   -2.001848    0.066549
 H   -4.900661   -4.047493   -0.598707
 H   -5.604089   -4.386694   -2.955728
 H   -5.095577   -2.640613   -4.652603
 H   -3.890521   -0.586738   -3.990136
