55 
4fqo_ligand_ani-2x.xyz
 N   15.297794    6.353790   24.167303
 C   14.131771    6.357869   23.646885
 N   13.993822    6.516185   22.276326
 C   12.841621    6.262083   24.395604
 C   11.727903    6.999827   23.999166
 C   10.526955    6.927915   24.696124
 C   12.729949    5.439014   25.518560
 C   11.538712    5.346599   26.214781
 C   10.427218    6.094201   25.810082
 O    9.313927    5.941721   26.577675
 C    8.141734    6.678226   26.252368
 C    7.339978    6.061122   25.110956
 C    6.868299    4.637933   25.411598
 C    5.997943    4.055702   24.300505
 C    5.499278    2.646487   24.611046
 C    4.643650    2.060694   23.490363
 C    4.195980    0.635911   23.761108
 O    3.388910    0.632773   24.928787
 C    2.858092   -0.550387   25.331907
 C    3.082717   -1.772630   24.698841
 C    2.481806   -2.923722   25.198929
 C    2.040065   -0.493875   26.466703
 C    1.464947   -1.650229   26.958858
 C    1.674513   -2.883137   26.331242
 C    1.028278   -4.126960   26.851296
 N    0.921250   -4.194665   28.232146
 N    0.545323   -5.066419   26.134023
 H   15.239712    6.276100   25.181730
 H   14.871722    6.404702   21.785556
 H   13.227397    6.012608   21.851523
 H   11.810991    7.653698   23.134782
 H    9.680090    7.512768   24.354702
 H   13.585456    4.843461   25.835587
 H   11.441242    4.711350   27.089782
 H    8.399127    7.725469   26.045444
 H    7.548561    6.661029   27.172580
 H    7.933579    6.062613   24.187547
 H    6.471333    6.708637   24.925852
 H    6.303985    4.635686   26.355854
 H    7.738566    3.990834   25.577960
 H    6.568334    4.043716   23.359600
 H    5.134655    4.715434   24.126064
 H    4.915820    2.654439   25.539670
 H    6.359674    1.986186   24.795084
 H    5.205559    2.063179   22.546953
 H    3.755052    2.686465   23.336028
 H    5.066131   -0.019996   23.913477
 H    3.619685    0.246451   22.910088
 H    3.709341   -1.840479   23.815226
 H    2.669672   -3.876245   24.704426
 H    1.879791    0.465598   26.948395
 H    0.826669   -1.610783   27.838576
 H    0.638564   -5.112637   28.550722
 H    1.698025   -3.809858   28.751833
 H    0.658132   -4.857155   25.142981
