45 
4fs4_ligand_xtb.xyz
 C    3.980146    2.770273    0.192908
 O    4.795015    1.824720   -0.456327
 C    4.340429    0.547137   -0.582534
 C    5.193683   -0.338760   -1.243502
 C    4.822272   -1.655145   -1.418378
 C    3.606279   -2.112929   -0.939663
 C    2.746451   -1.241265   -0.281783
 C    3.119101    0.090460   -0.106847
 C    1.449033   -1.709644    0.229792
 C    1.331508   -2.947600    0.856984
 C    0.105204   -3.370072    1.331056
 C   -1.018616   -2.571609    1.195555
 C   -0.922187   -1.330896    0.580189
 C   -2.124146   -0.423955    0.374301
 C   -3.247378   -0.678734    1.389895
 C   -2.640031   -0.604405   -1.057558
 C   -3.675234    0.436614   -1.418573
 O   -4.617782    0.195225   -2.140319
 N   -3.455405    1.685440   -0.901113
 C   -4.364388    2.750282   -1.283654
 C   -2.409562    2.001188   -0.008741
 N   -2.091017    3.165581    0.374690
 N   -1.675649    0.953354    0.454727
 C    0.312940   -0.919401    0.095654
 H    3.024875    2.903908   -0.324937
 H    3.792660    2.492439    1.235251
 H    4.536593    3.705782    0.165924
 H    6.138167    0.032870   -1.607459
 H    5.486161   -2.332732   -1.934393
 H    3.313991   -3.140094   -1.096173
 H    2.450751    0.750512    0.423517
 H    2.205798   -3.567650    0.986000
 H    0.018988   -4.331106    1.816462
 H   -1.962787   -2.928395    1.573540
 H   -4.010938    0.090609    1.292411
 H   -3.720246   -1.641353    1.218623
 H   -2.854081   -0.648397    2.403836
 H   -1.806231   -0.495747   -1.757338
 H   -3.075989   -1.592550   -1.202881
 H   -4.778908    3.233901   -0.397557
 H   -5.168332    2.296885   -1.860793
 H   -3.854995    3.491348   -1.903435
 H   -2.609571    3.928603   -0.037258
 H   -1.075848    1.204258    1.226128
 H    0.389076    0.030952   -0.411731
