50 
4fz6_ligand_xtb.xyz
 C    2.578183    2.236215    2.111582
 N    3.452617    1.291433    2.607288
 C    1.483989    1.796025    1.325614
 N    3.364845   -0.016075    2.408901
 C    1.393827    0.435877    1.107595
 C    2.359121   -0.428158    1.668249
 N   -0.883789    1.485112   -0.346348
 C   -2.009306    1.392514   -1.067021
 N   -2.297444    0.157668   -1.536526
 N    2.929863    3.456471    2.488250
 N    0.631751    2.762902    0.883779
 C   -0.524708    2.666950    0.137133
 C    4.389372    1.963388    3.321718
 C    4.042094    3.291022    3.230702
 C    2.273123   -1.882476    1.466861
 C   -3.487096   -0.217204   -2.271645
 C   -1.437555   -0.972323   -1.250981
 C   -2.825389    2.510036   -1.314872
 C   -1.264175    3.833076   -0.073822
 C   -2.433413    3.730872   -0.807959
 C   -2.086669   -2.145333   -1.980960
 C   -3.555715   -1.733515   -2.059535
 C    1.741148   -2.420413    0.298416
 C    2.737681   -2.745584    2.456932
 C   -3.372852    0.149768   -3.754551
 C    1.659380   -3.790733    0.133436
 C    2.653798   -4.114415    2.288967
 C    2.109203   -4.641534    1.129098
 H    0.568510    0.051968    0.538563
 H    0.886732    3.692579    1.193635
 H    5.195082    1.465479    3.817424
 H    4.538892    4.136624    3.663997
 H   -4.365926    0.279915   -1.844437
 H   -1.399081   -1.146261   -0.168916
 H   -0.422994   -0.765514   -1.601466
 H   -3.734441    2.421496   -1.884654
 H   -0.932263    4.775659    0.331047
 H   -3.038813    4.608274   -0.985140
 H   -1.944606   -3.084494   -1.450471
 H   -1.669781   -2.250127   -2.982698
 H   -4.053584   -1.952440   -1.114205
 H   -4.092394   -2.236005   -2.861447
 H    1.412451   -1.766102   -0.493981
 H    3.160404   -2.323593    3.355146
 H   -3.199767    1.216547   -3.869217
 H   -4.289239   -0.112993   -4.277218
 H   -2.542158   -0.379524   -4.212999
 H    1.246662   -4.196546   -0.779096
 H    3.012993   -4.774781    3.064765
 H    2.041338   -5.711726    0.998967
