50 
4fz6_ligand_ani-2x.xyz
 C    2.438589    2.217326    2.255981
 N    3.190372    1.241126    2.873654
 C    1.521680    1.798057    1.250068
 N    3.157011   -0.074657    2.620068
 C    1.498536    0.465501    0.935303
 C    2.353049   -0.435147    1.642219
 N   -0.806104    1.549636   -0.437522
 C   -1.925776    1.456346   -1.173573
 N   -2.317660    0.182101   -1.455675
 N    2.701575    3.425795    2.735220
 N    0.779516    2.820712    0.691837
 C   -0.358558    2.749356   -0.092075
 C    3.974162    1.876341    3.807152
 C    3.653604    3.208651    3.695089
 C    2.359684   -1.891236    1.310222
 C   -3.545381   -0.187918   -2.150360
 C   -1.549858   -0.956128   -0.970284
 C   -2.637086    2.588738   -1.612779
 C   -0.991026    3.941130   -0.484316
 C   -2.138302    3.833747   -1.252770
 C   -2.320925   -2.172667   -1.492660
 C   -3.744123   -1.643703   -1.696972
 C    1.990524   -2.348557    0.042538
 C    2.749960   -2.814227    2.281524
 C   -3.423988   -0.046826   -3.666887
 C    1.989067   -3.708463   -0.245782
 C    2.739078   -4.175349    1.995266
 C    2.357626   -4.625631    0.734734
 H    0.813565    0.099018    0.182652
 H    1.053058    3.733307    1.037567
 H    4.653531    1.307770    4.422352
 H    4.068146    4.025899    4.267927
 H   -4.376673    0.437147   -1.796880
 H   -1.492928   -0.927722    0.127174
 H   -0.519943   -0.917990   -1.348901
 H   -3.540075    2.491515   -2.204920
 H   -0.589189    4.906955   -0.192249
 H   -2.658617    4.733886   -1.572901
 H   -2.282067   -3.017242   -0.800384
 H   -1.894042   -2.502688   -2.445807
 H   -4.291564   -1.657290   -0.748162
 H   -4.320052   -2.224364   -2.424110
 H    1.726165   -1.639610   -0.740369
 H    3.057417   -2.453048    3.257856
 H   -3.189910    0.983290   -3.955196
 H   -4.366992   -0.330154   -4.148075
 H   -2.630315   -0.693461   -4.059657
 H    1.696555   -4.050898   -1.235303
 H    3.035289   -4.888667    2.760577
 H    2.353293   -5.689705    0.515488
