86 
4fzc_ligand_xtb.xyz
 O   -1.484068    1.003406   -1.997624
 C   -0.502254    0.274956   -1.934132
 C    0.828576    0.791042   -1.571089
 C    1.999718    0.264194   -1.951076
 C    3.275658    0.841302   -1.617197
 C    4.435587    0.318522   -2.021461
 C    5.805755    0.831767   -1.728331
 C    5.858767    2.141874   -0.947600
 C    7.283868    2.668991   -0.772695
 C    8.145419    1.803004    0.145173
 C    9.514512    2.440932    0.373746
 C   10.468423    1.642927    1.274522
 C    9.918022    1.477854    2.689588
 C   10.818692    0.281004    0.678285
 N   -0.582052   -1.054822   -2.165840
 C   -1.768066   -1.673752   -2.721432
 C   -2.788602   -1.896767   -1.592873
 O   -2.937830   -2.982361   -1.047065
 C   -1.394584   -3.008787   -3.375364
 O   -0.217023   -2.799667   -4.136810
 C   -2.545413   -3.526134   -4.230619
 N   -3.473301   -0.804053   -1.260232
 C   -4.427607   -0.802860   -0.178798
 C   -5.474592    0.284599   -0.443190
 O   -5.229862    1.274544   -1.100239
 C   -3.759832   -0.498353    1.183722
 C   -3.670720   -1.723804    2.109132
 O   -2.633313   -2.589401    1.723382
 C   -3.392714   -1.304440    3.562391
 C   -4.661776   -1.034812    4.372742
 N   -5.415187    0.112379    3.909390
 N   -6.649380    0.057607    0.168467
 C   -7.699936    1.054714    0.241583
 C   -8.824288    0.715233   -0.736194
 C   -8.232631    1.148454    1.675709
 C   -7.126667    1.329749    2.717464
 C   -6.508506   -0.002503    3.127844
 O   -6.968477   -1.079971    2.800660
 H    0.803190    1.721970   -1.021328
 H    2.030784   -0.629878   -2.561985
 H    3.250163    1.735274   -1.011840
 H    4.417912   -0.580739   -2.627137
 H    6.332093    0.958510   -2.680816
 H    6.341982    0.051197   -1.179238
 H    5.274116    2.893006   -1.483362
 H    5.406373    1.999003    0.035930
 H    7.762844    2.748701   -1.751820
 H    7.230716    3.676511   -0.352436
 H    8.276435    0.817311   -0.300956
 H    7.630478    1.680513    1.099304
 H    9.370305    3.430309    0.816043
 H    9.997510    2.586508   -0.596290
 H   11.394989    2.226681    1.341552
 H    9.631182    2.441376    3.104933
 H    9.048769    0.825051    2.694412
 H   10.673089    1.037355    3.337060
 H    9.954833   -0.379025    0.682706
 H   11.605674   -0.192504    1.261214
 H   11.169291    0.388373   -0.345854
 H    0.249479   -1.621323   -2.147668
 H   -2.198596   -0.987696   -3.462146
 H   -1.187757   -3.732492   -2.570207
 H   -0.107128   -3.547560   -4.732840
 H   -2.766210   -2.821768   -5.030088
 H   -3.428961   -3.654949   -3.613043
 H   -2.287978   -4.488994   -4.669052
 H   -3.205917    0.106943   -1.638175
 H   -4.903702   -1.789609   -0.151470
 H   -4.316779    0.291837    1.686194
 H   -2.748453   -0.127324    1.001979
 H   -4.634110   -2.260522    2.083968
 H   -2.767049   -2.858434    0.794955
 H   -2.739311   -0.430099    3.574249
 H   -2.855689   -2.128235    4.033340
 H   -4.398038   -0.873118    5.421750
 H   -5.331944   -1.894286    4.302231
 H   -5.037863    1.026111    4.105319
 H   -6.792164   -0.777906    0.719027
 H   -7.239265    2.004252   -0.056259
 H   -9.259704   -0.250016   -0.487974
 H   -9.602397    1.472436   -0.694479
 H   -8.431524    0.673119   -1.748397
 H   -8.930763    1.984244    1.728535
 H   -8.776125    0.231057    1.912328
 H   -6.347480    1.992023    2.333592
 H   -7.540817    1.785739    3.620198
