86 
4fzc_ligand_ani-2x.xyz
 O   -1.449705    0.937497   -2.304118
 C   -0.483452    0.174188   -2.300069
 C    0.886332    0.704578   -2.080531
 C    2.006512   -0.009225   -1.930422
 C    3.321663    0.593842   -1.730728
 C    4.430116   -0.137390   -1.575906
 C    5.831924    0.358466   -1.370973
 C    5.995559    1.880023   -1.410359
 C    7.449685    2.341873   -1.314575
 C    8.148756    1.945237   -0.013161
 C    9.561834    2.521353    0.089568
 C   10.341650    2.138054    1.357535
 C    9.650763    2.633504    2.629908
 C   10.607875    0.633148    1.437720
 N   -0.607341   -1.169368   -2.489309
 C   -1.874756   -1.746662   -2.905494
 C   -2.817304   -1.911264   -1.698776
 O   -3.085192   -3.024027   -1.235620
 C   -1.642480   -3.102127   -3.584625
 O   -0.495596   -2.939560   -4.416963
 C   -2.848364   -3.543791   -4.398737
 N   -3.340667   -0.782012   -1.195335
 C   -4.321578   -0.783883   -0.138047
 C   -5.203086    0.455352   -0.313450
 O   -4.810589    1.454915   -0.896321
 C   -3.701196   -0.771558    1.285070
 C   -3.833110   -2.108512    2.033934
 O   -2.889874   -3.045491    1.571528
 C   -3.609608   -1.959149    3.542533
 C   -4.874212   -1.678695    4.365183
 N   -5.540730   -0.413874    4.090567
 N   -6.412173    0.370351    0.292216
 C   -7.198016    1.560046    0.583876
 C   -8.071824    1.929321   -0.610583
 C   -8.024333    1.336128    1.853713
 C   -7.206157    1.088604    3.126869
 C   -6.591450   -0.307231    3.233586
 O   -6.991488   -1.270843    2.585218
 H    0.912634    1.789283   -2.024067
 H    1.992055   -1.104747   -1.937635
 H    3.349525    1.683218   -1.716249
 H    4.321678   -1.224439   -1.593889
 H    6.476899   -0.096814   -2.134645
 H    6.197797   -0.039030   -0.415364
 H    5.565415    2.262370   -2.344948
 H    5.416045    2.327538   -0.590677
 H    8.015822    1.935694   -2.166792
 H    7.480902    3.435509   -1.419744
 H    8.193986    0.850830    0.057798
 H    7.541774    2.287583    0.836334
 H    9.501021    3.618434    0.031826
 H   10.139842    2.198431   -0.789318
 H   11.316003    2.643073    1.291591
 H    9.452022    3.710942    2.586363
 H    8.693189    2.123038    2.786963
 H   10.271364    2.439158    3.511884
 H    9.673805    0.068122    1.540071
 H   11.229960    0.393727    2.307499
 H   11.123603    0.267122    0.542016
 H    0.199650   -1.666562   -2.845498
 H   -2.346569   -1.050200   -3.614976
 H   -1.434404   -3.840813   -2.798726
 H   -0.291114   -3.801690   -4.798308
 H   -3.055138   -2.818584   -5.193329
 H   -3.728327   -3.638401   -3.757748
 H   -2.660813   -4.517845   -4.865017
 H   -3.055498    0.126867   -1.559526
 H   -4.943786   -1.684812   -0.247561
 H   -4.184073    0.003383    1.887039
 H   -2.640113   -0.505185    1.214691
 H   -4.861178   -2.488219    1.882442
 H   -3.027065   -3.170452    0.612994
 H   -2.845570   -1.192840    3.732704
 H   -3.189026   -2.910865    3.883823
 H   -4.624429   -1.707517    5.430777
 H   -5.603948   -2.470192    4.168567
 H   -5.251443    0.404269    4.603338
 H   -6.662570   -0.476836    0.790250
 H   -6.488709    2.381002    0.753934
 H   -8.780967    1.123526   -0.831827
 H   -8.635985    2.847337   -0.409601
 H   -7.443241    2.093453   -1.490052
 H   -8.646683    2.224758    2.013499
 H   -8.708566    0.492856    1.692400
 H   -6.406977    1.837217    3.219325
 H   -7.856394    1.220986    4.002350
