83 
4fzg_ligand_ani-2x.xyz
 C    1.870499   -2.377188    0.224540
 O    1.571811   -3.562369    0.298959
 C    3.289559   -1.951678    0.097907
 C    3.753618   -0.700553    0.166628
 C    5.164723   -0.355418    0.017397
 C    5.606767    0.903860    0.096026
 C    7.023269    1.382237   -0.041220
 C    8.059679    0.290715   -0.312456
 C    9.472635    0.850027   -0.447245
 C   10.517334   -0.230000   -0.728054
 C   11.933715    0.305333   -0.956435
 C   12.537850    1.024025    0.250561
 C   13.980898    1.461312    0.010771
 N    0.925097   -1.392701    0.259627
 C   -0.469927   -1.730020    0.293539
 C   -1.244652   -0.652073   -0.463649
 O   -0.808287    0.482512   -0.603250
 C   -1.013399   -1.867862    1.746696
 O   -2.419816   -2.045570    1.714465
 C   -0.648673   -0.689053    2.637838
 N   -2.459930   -1.052450   -0.911780
 C   -3.520905   -0.107185   -1.170999
 C   -3.809673    0.783027    0.054602
 O   -3.512035    0.450496    1.203272
 C   -4.766365   -0.867450   -1.660233
 C   -5.439255   -1.875414   -0.700501
 O   -4.482959   -2.798072   -0.172640
 C   -6.307435   -1.307401    0.437265
 C   -7.711178   -0.822617    0.037276
 N   -7.778644    0.206247   -0.989716
 N   -4.445055    1.945157   -0.216044
 C   -4.888890    2.864651    0.828085
 C   -3.953673    4.069632    0.915845
 C   -6.340844    3.303157    0.601019
 C   -7.333935    2.143362    0.488553
 C   -7.306301    1.487860   -0.886570
 O   -6.916816    2.078551   -1.885501
 H    3.972511   -2.786501   -0.036873
 H    3.085201    0.146499    0.358014
 H    5.844289   -1.187027   -0.166359
 H    4.868486    1.687532    0.281443
 H    7.060865    2.130493   -0.844779
 H    7.294528    1.927282    0.873209
 H    8.034823   -0.446389    0.502010
 H    7.789091   -0.246106   -1.232344
 H    9.732136    1.392312    0.473035
 H    9.492733    1.594636   -1.257634
 H   10.207032   -0.802065   -1.613302
 H   10.528882   -0.942833    0.110207
 H   12.589585   -0.531053   -1.235073
 H   11.929443    0.991186   -1.816948
 H   12.493688    0.358510    1.123741
 H   11.931739    1.902912    0.503320
 H   14.623198    0.600139   -0.207993
 H   14.394426    1.974595    0.885016
 H   14.046049    2.147364   -0.842057
 H    1.122061   -0.439839   -0.017370
 H   -0.595059   -2.710866   -0.179044
 H   -0.565709   -2.784432    2.150751
 H   -2.792930   -1.138559    1.656287
 H   -1.018391    0.252126    2.219498
 H    0.433780   -0.613628    2.767440
 H   -1.110277   -0.832671    3.619581
 H   -2.766559   -1.989049   -0.673562
 H   -3.193968    0.556592   -1.981104
 H   -4.440282   -1.439830   -2.537980
 H   -5.498590   -0.143804   -2.026800
 H   -6.086703   -2.498421   -1.331534
 H   -4.141922   -2.481002    0.681956
 H   -5.763029   -0.523997    0.974488
 H   -6.447414   -2.127072    1.156503
 H   -8.241788   -0.472118    0.929516
 H   -8.288090   -1.673700   -0.340858
 H   -7.747860   -0.112260   -1.950179
 H   -4.816003    2.098680   -1.146045
 H   -4.830790    2.306939    1.768673
 H   -4.243488    4.724816    1.745328
 H   -2.922820    3.741584    1.081004
 H   -3.987183    4.652436   -0.012653
 H   -6.405054    3.912003   -0.309773
 H   -6.633294    3.943562    1.442470
 H   -7.133241    1.395527    1.264253
 H   -8.357313    2.501629    0.658200
