83 
4fzg_ligand_xtb.xyz
 C    1.778310   -2.542051    0.006717
 O    1.529923   -3.725859    0.166096
 C    3.161373   -2.040942   -0.110625
 C    3.573580   -0.782967    0.089433
 C    4.952926   -0.378123   -0.000422
 C    5.356572    0.876864    0.207856
 C    6.754587    1.395018    0.135501
 C    7.820746    0.362158   -0.216429
 C    9.212414    0.989471   -0.266279
 C   10.284430   -0.042358   -0.610939
 C   11.678381    0.562252   -0.780709
 C   12.272298    1.100909    0.519215
 C   13.703762    1.585279    0.322271
 N    0.799152   -1.609564   -0.066208
 C   -0.596380   -1.935997    0.009860
 C   -1.387462   -0.836754   -0.683918
 O   -0.954401    0.290420   -0.838641
 C   -1.087082   -2.042160    1.499236
 O   -2.493352   -2.070484    1.577440
 C   -0.520340   -0.901012    2.336951
 N   -2.613561   -1.234154   -1.071719
 C   -3.668594   -0.285631   -1.345693
 C   -3.738366    0.739965   -0.202474
 O   -3.386304    0.461422    0.937857
 C   -4.988715   -1.032787   -1.587192
 C   -5.529263   -1.971669   -0.473572
 O   -4.597738   -2.984967   -0.158674
 C   -6.040884   -1.288615    0.804422
 C   -7.448092   -0.681084    0.693114
 N   -7.589880    0.280333   -0.375450
 N   -4.218182    1.935743   -0.541308
 C   -4.344214    3.030895    0.403675
 C   -3.491549    4.207097   -0.061386
 C   -5.814331    3.433976    0.567304
 C   -6.708166    2.223871    0.840780
 C   -7.101411    1.540076   -0.456412
 O   -7.047932    2.098018   -1.537857
 H    3.882783   -2.818903   -0.321038
 H    2.870183   -0.000333    0.345727
 H    5.660814   -1.154224   -0.251337
 H    4.616271    1.628556    0.458012
 H    6.779073    2.205407   -0.601831
 H    6.998069    1.851457    1.101613
 H    7.814247   -0.435513    0.529240
 H    7.590878   -0.080352   -1.187948
 H    9.433797    1.441417    0.702257
 H    9.224864    1.784356   -1.016310
 H   10.003713   -0.538180   -1.543719
 H   10.315356   -0.805491    0.170382
 H   12.346082   -0.208381   -1.174314
 H   11.635199    1.367326   -1.518297
 H   12.257372    0.312139    1.274992
 H   11.664661    1.928615    0.888515
 H   14.339284    0.771217   -0.019984
 H   14.110897    1.969287    1.254862
 H   13.738230    2.379931   -0.420086
 H    0.991731   -0.640038   -0.274998
 H   -0.767453   -2.905461   -0.472301
 H   -0.740872   -3.005751    1.887030
 H   -2.803251   -1.142891    1.481926
 H   -0.809135    0.055042    1.903015
 H    0.562793   -0.962710    2.385797
 H   -0.921218   -0.963441    3.346059
 H   -2.913263   -2.179943   -0.868246
 H   -3.418964    0.270193   -2.261194
 H   -4.825338   -1.667801   -2.461687
 H   -5.749879   -0.300309   -1.848026
 H   -6.375318   -2.508492   -0.930717
 H   -4.047812   -2.726531    0.603455
 H   -5.329855   -0.536156    1.135618
 H   -6.087666   -2.057315    1.579781
 H   -7.708958   -0.209348    1.643817
 H   -8.171414   -1.477970    0.505576
 H   -7.873038   -0.097861   -1.269805
 H   -4.533188    2.117102   -1.482831
 H   -3.958222    2.647220    1.354422
 H   -3.534035    5.011664    0.667327
 H   -2.457078    3.894485   -0.178554
 H   -3.855026    4.582246   -1.015648
 H   -6.162099    3.917576   -0.347867
 H   -5.886810    4.149191    1.386412
 H   -6.205457    1.529882    1.511872
 H   -7.637609    2.545718    1.317468
