83 
4fzg_ligand_aiqm1.xyz
 C    1.838688   -2.510167    0.326576
 O    1.593130   -3.683175    0.578360
 C    3.242350   -2.031146    0.222696
 C    3.646554   -0.841867   -0.243884
 C    5.046345   -0.453388   -0.337094
 C    5.437324    0.737645   -0.810968
 C    6.851725    1.225716   -0.943783
 C    7.929165    0.251645   -0.485689
 C    9.334070    0.815447   -0.642779
 C   10.411766   -0.159979   -0.184415
 C   11.838000    0.344963   -0.385297
 C   12.198109    1.556426    0.468244
 C   13.655636    1.967520    0.294266
 N    0.852780   -1.600828    0.140716
 C   -0.538974   -1.957486    0.200037
 C   -1.327171   -0.820853   -0.441660
 O   -0.921235    0.334773   -0.425278
 C   -1.039941   -2.220692    1.653582
 O   -2.457630   -2.348344    1.652488
 C   -0.588622   -1.161580    2.639205
 N   -2.514892   -1.171003   -0.983489
 C   -3.536003   -0.165159   -1.176818
 C   -3.773064    0.644565    0.111378
 O   -3.630298    0.138656    1.226508
 C   -4.818540   -0.819054   -1.711598
 C   -5.602212   -1.789351   -0.795449
 O   -4.736172   -2.814371   -0.307893
 C   -6.407237   -1.186464    0.358607
 C   -7.732927   -0.512301   -0.008158
 N   -7.637272    0.588778   -0.954640
 N   -4.161830    1.905272   -0.076669
 C   -4.466979    2.823330    1.020175
 C   -3.421943    3.928750    1.081917
 C   -5.878926    3.378556    0.853154
 C   -6.943516    2.292700    0.691651
 C   -7.068781    1.808452   -0.742869
 O   -6.726494    2.495991   -1.695447
 H    3.971829   -2.767941    0.537938
 H    2.929537   -0.100186   -0.590576
 H    5.770596   -1.187419    0.001909
 H    4.672759    1.440884   -1.140435
 H    7.018988    1.493609   -1.991615
 H    6.939558    2.161781   -0.383632
 H    7.766752   -0.012607    0.564003
 H    7.850080   -0.680181   -1.055109
 H    9.412498    1.749636   -0.075289
 H    9.505224    1.078071   -1.693254
 H   10.289768   -1.102576   -0.726282
 H   10.257694   -0.392770    0.876073
 H   12.534580   -0.466386   -0.155030
 H   11.991079    0.591600   -1.442825
 H   12.001844    1.324473    1.519248
 H   11.548752    2.398402    0.212509
 H   14.326237    1.154197    0.579730
 H   13.901895    2.836145    0.905501
 H   13.864170    2.218727   -0.747558
 H    1.038562   -0.625779   -0.019212
 H   -0.708070   -2.877975   -0.362596
 H   -0.645552   -3.190678    1.946182
 H   -2.837278   -1.455676    1.713190
 H   -0.924706   -0.169281    2.330830
 H    0.496703   -1.154185    2.728102
 H   -1.010935   -1.388467    3.618426
 H   -2.828741   -2.117731   -0.825701
 H   -3.181708    0.539146   -1.930507
 H   -4.513469   -1.398921   -2.584229
 H   -5.479270   -0.034473   -2.078920
 H   -6.305760   -2.314620   -1.447112
 H   -4.366185   -2.562686    0.548962
 H   -5.778927   -0.509751    0.932632
 H   -6.657656   -2.021266    1.011608
 H   -8.213841   -0.153344    0.902855
 H   -8.405043   -1.248735   -0.448228
 H   -7.737991    0.368896   -1.933231
 H   -4.280009    2.245277   -1.017468
 H   -4.417105    2.221757    1.929677
 H   -3.613703    4.594331    1.924170
 H   -2.427285    3.500734    1.197064
 H   -3.444209    4.520411    0.164229
 H   -5.900666    4.033296   -0.019183
 H   -6.109818    3.984836    1.730868
 H   -6.743828    1.462091    1.368351
 H   -7.926736    2.686581    0.958515
