41 
4g11_ligand_ani-2x.xyz
 O  -42.903481   17.414572  -34.841184
 C  -43.317556   16.807848  -33.867360
 N  -44.510116   16.153972  -33.784778
 C  -45.481904   16.018774  -34.791269
 C  -46.538912   15.135653  -34.554909
 C  -47.540717   14.964929  -35.502720
 C  -45.433457   16.735772  -35.985994
 C  -46.444044   16.558266  -36.926115
 C  -47.497607   15.679076  -36.695541
 C  -42.488090   16.797936  -32.578275
 C  -42.501882   15.537719  -31.755493
 N  -41.291078   15.025201  -31.419282
 C  -41.121893   13.860209  -30.631597
 O  -39.995570   13.465623  -30.384832
 C  -42.366984   13.288165  -30.215149
 N  -43.624335   15.001808  -31.365570
 C  -43.560726   13.873359  -30.590942
 N  -44.788779   13.361552  -30.228377
 C  -45.846493   14.313560  -29.902094
 C  -44.831404   12.130768  -29.454765
 C  -46.239135   11.548923  -29.475702
 O  -47.204219   12.496433  -29.072612
 C  -47.193227   13.611993  -29.939229
 H  -44.669680   15.625459  -32.932261
 H  -46.565695   14.578666  -33.620767
 H  -48.357346   14.273740  -35.309274
 H  -44.608795   17.412898  -36.167394
 H  -46.398996   17.119696  -37.856513
 H  -48.277293   15.552572  -37.441564
 H  -42.867531   17.611378  -31.950784
 H  -41.471994   17.064515  -32.870405
 H  -40.428924   15.459787  -31.733036
 H  -42.307479   12.419245  -29.575130
 H  -45.812892   15.129864  -30.627224
 H  -45.689243   14.744122  -28.898872
 H  -44.516935   12.303571  -28.413257
 H  -44.153837   11.399418  -29.904555
 H  -46.307858   10.707302  -28.779914
 H  -46.470726   11.181527  -30.487872
 H  -47.422483   13.294485  -30.968971
 H  -47.985585   14.285944  -29.599021
