41 
4g11_ligand_aiqm1.xyz
 O  -42.900579   17.553768  -34.679251
 C  -43.379133   16.959136  -33.735236
 N  -44.522716   16.232534  -33.745181
 C  -45.390449   15.985085  -34.834330
 C  -46.439495   15.087797  -34.615041
 C  -47.342051   14.800459  -35.631222
 C  -45.248224   16.597091  -36.082889
 C  -46.162854   16.296151  -37.090715
 C  -47.209707   15.405100  -36.877838
 C  -42.711891   17.019681  -32.349009
 C  -42.633518   15.682734  -31.673197
 N  -41.439291   15.050107  -31.640834
 C  -41.249376   13.772354  -31.057390
 O  -40.137948   13.276587  -31.056558
 C  -42.461550   13.229893  -30.520580
 N  -43.726855   15.180562  -31.180229
 C  -43.646296   13.923197  -30.607023
 N  -44.856749   13.415547  -30.198143
 C  -45.829085   14.368156  -29.667251
 C  -44.847105   12.146710  -29.477914
 C  -46.264228   11.605433  -29.376116
 O  -47.143674   12.544198  -28.790806
 C  -47.195645   13.713482  -29.586413
 H  -44.742924   15.752433  -32.880277
 H  -46.542576   14.609643  -33.645976
 H  -48.145727   14.101672  -35.443078
 H  -44.438538   17.286691  -36.264318
 H  -46.051112   16.768027  -38.058523
 H  -47.909606   15.183459  -37.670991
 H  -43.327360   17.677868  -31.736100
 H  -41.727990   17.461127  -32.479877
 H  -40.622820   15.471508  -32.057655
 H  -42.377522   12.260844  -30.059897
 H  -45.861631   15.232943  -30.326166
 H  -45.519489   14.705858  -28.671747
 H  -44.408744   12.261612  -28.479704
 H  -44.249875   11.426532  -30.036008
 H  -46.279418   10.721593  -28.740933
 H  -46.627393   11.333003  -30.375029
 H  -47.555686   13.461094  -30.591439
 H  -47.908069   14.384633  -29.109714
