41 
4g11_ligand_xtb.xyz
 O  -42.732659   16.881537  -34.851828
 C  -43.270454   16.671720  -33.791438
 N  -44.539343   16.249581  -33.593727
 C  -45.531140   15.967107  -34.540494
 C  -46.789716   15.603859  -34.065855
 C  -47.810523   15.313272  -34.950059
 C  -45.310936   16.044735  -35.911839
 C  -46.341488   15.753846  -36.787612
 C  -47.589920   15.386043  -36.315589
 C  -42.538041   16.893673  -32.452356
 C  -42.501221   15.626465  -31.659548
 N  -41.352795   14.933266  -31.622712
 C  -41.217055   13.705822  -30.927594
 O  -40.146487   13.133529  -30.950629
 C  -42.413240   13.303745  -30.271962
 N  -43.585108   15.233321  -31.071161
 C  -43.559559   14.062524  -30.347941
 N  -44.714450   13.777538  -29.693943
 C  -45.948822   14.469948  -29.997145
 C  -44.979468   12.522989  -29.025735
 C  -45.888333   11.658985  -29.911033
 O  -47.087224   12.336711  -30.211252
 C  -46.835687   13.562043  -30.860936
 H  -44.783881   16.049027  -32.628073
 H  -46.963239   15.555006  -32.999970
 H  -48.781207   15.030621  -34.570577
 H  -44.341042   16.331154  -36.281949
 H  -46.163299   15.815142  -37.850650
 H  -48.387736   15.158988  -37.006133
 H  -43.081955   17.658038  -31.895610
 H  -41.532443   17.249831  -32.672940
 H  -40.530013   15.256472  -32.117038
 H  -42.355685   12.381009  -29.723081
 H  -45.720596   15.403292  -30.507350
 H  -46.463736   14.684522  -29.054602
 H  -45.502497   12.745389  -28.088818
 H  -44.058647   11.994678  -28.795455
 H  -46.177680   10.742268  -29.395636
 H  -45.355175   11.404032  -30.840075
 H  -46.339468   13.378223  -31.827314
 H  -47.812930   14.016348  -31.032942
