53 
4g93_ligand_xtb.xyz
 C  105.065880  -26.792735  269.014325
 N  106.216693  -27.517851  268.934480
 O  104.065916  -27.067374  268.383800
 C  106.331300  -28.694085  268.211734
 N  104.560551  -29.464147  266.732274
 O  104.563682  -30.081895  268.911862
 C  105.040275  -29.459743  267.981224
 C  103.297832  -30.136496  266.478967
 C  102.387824  -29.224416  265.668609
 C  102.990706  -28.966129  264.282335
 C  104.521007  -29.038276  264.340732
 C  105.033256  -28.565931  265.695225
 C  107.499232  -29.227649  267.847268
 C  107.653679  -30.492502  267.130664
 C  108.344567  -30.509928  265.905585
 C  108.500636  -31.711603  265.228398
 C  107.969250  -32.877269  265.754716
 C  107.279125  -32.861172  266.953299
 C  107.126756  -31.671224  267.641883
 C  105.133698  -25.622747  269.939909
 C  103.955483  -25.259044  270.590782
 C  103.936995  -24.182737  271.453748
 C  105.106282  -23.457987  271.650792
 C  106.282873  -23.793423  270.991932
 C  106.296041  -24.878286  270.137282
 N  105.097404  -22.326298  272.548797
 O  104.056144  -22.063622  273.109298
 C  109.557996  -29.243468  264.290534
 O  106.132027  -21.710414  272.684761
 O  108.783737  -29.300123  265.463458
Br  109.127841  -28.290870  268.264682
 H  107.047765  -27.204504  269.422745
 H  102.858878  -30.372986  267.450373
 H  103.483593  -31.075182  265.944198
 H  102.279313  -28.287113  266.215946
 H  101.400352  -29.676470  265.578018
 H  102.677316  -27.982954  263.929004
 H  102.624284  -29.704552  263.567532
 H  104.858544  -30.064496  264.183212
 H  104.960202  -28.421871  263.555632
 H  106.125253  -28.550645  265.695596
 H  104.673286  -27.548808  265.898014
 H  109.029736  -31.747040  264.289357
 H  108.098642  -33.804059  265.216199
 H  106.866180  -33.772048  267.357054
 H  106.600444  -31.646584  268.583198
 H  103.064108  -25.838536  270.406587
 H  103.038005  -23.889928  271.974006
 H  107.168374  -23.199168  271.158389
 H  107.207305  -25.116092  269.608668
 H  109.838963  -28.197777  264.176504
 H  110.462076  -29.853097  264.377185
 H  108.981692  -29.562650  263.416227
