53 
4gh6_ligand_aiqm1.xyz
 C    1.218036    3.422068   -1.439140
 C    0.062367    2.561673   -1.855714
 C   -1.252585    3.014697   -1.721644
 C   -2.344580    2.215714   -2.065092
 C   -2.128802    0.934037   -2.568371
 C   -0.828154    0.472793   -2.741079
 C    0.249884    1.277071   -2.380631
 N    1.569549    0.764701   -2.544131
 C    2.079783   -0.387733   -2.061420
 N    1.378052   -1.320400   -1.341833
 N    2.511661    1.470536   -3.251835
 C    3.619288    0.753840   -3.184695
 C    3.415729   -0.429924   -2.437014
 C    4.237677   -1.527446   -2.014181
 O    5.412521   -1.750984   -2.216606
 N    3.470169   -2.440547   -1.239170
 C    2.133031   -2.328464   -0.961896
 N    1.589744   -3.346361   -0.257505
 C    0.162123   -3.510799    0.012809
 C   -0.111958   -4.981040    0.260214
 C   -0.293094   -2.659073    1.221328
 O   -0.507989   -3.162790    2.310992
 N   -0.444767   -1.351851    0.916085
 C   -1.014841   -0.328979    1.708368
 C   -1.288817   -0.452122    3.066922
 C   -1.869133    0.616898    3.759917
 C   -2.174111    1.806087    3.102045
 O   -2.741567    2.902049    3.685932
 C   -3.030760    2.806439    5.068094
 C   -1.892976    1.922507    1.739384
 C   -1.318692    0.867704    1.053629
 H    0.863609    4.322957   -0.941532
 H    1.875893    2.879657   -0.758484
 H    1.816291    3.707740   -2.301710
 H   -1.413937    4.012997   -1.330140
 H   -3.353555    2.584898   -1.929632
 H   -2.965862    0.300698   -2.827564
 H   -0.634344   -0.521596   -3.126778
 H    4.519295    1.098060   -3.663129
 H    3.981442   -3.248091   -0.914122
 H    2.204134   -4.030779    0.147788
 H   -0.385166   -3.167898   -0.866816
 H   -1.167477   -5.135444    0.470033
 H    0.449581   -5.318326    1.130426
 H    0.174947   -5.570241   -0.610956
 H   -0.118456   -1.073852   -0.003569
 H   -1.065739   -1.371156    3.588161
 H   -2.077017    0.499748    4.814103
 H   -3.745683    2.004925    5.269965
 H   -2.123447    2.636711    5.653068
 H   -3.468624    3.760125    5.349395
 H   -2.135663    2.846528    1.232887
 H   -1.096908    0.952037   -0.004557
