50 
4gk2_ligand_ani-2x.xyz
 O   -0.367126  -16.928736  -12.521714
 C    0.015181  -15.788419  -12.685444
 N    0.536479  -15.029006  -11.640273
 C    1.012998  -13.707499  -11.632248
 O    1.437838  -13.181267  -10.623035
 N   -0.035982  -15.145237  -13.922859
 C   -0.546994  -15.838199  -15.092091
 C    0.401487  -13.851243  -14.031784
 C    0.903606  -13.150333  -12.952207
 N    0.377901  -13.118764  -15.187527
 C    0.882820  -11.964164  -14.787964
 N    1.216514  -11.915950  -13.470788
 C    1.758297  -10.693815  -13.151250
 N    1.221612  -10.739149  -15.330755
 C    1.750938   -9.945429  -14.294266
 C    2.037440   -8.509426  -14.437123
 C    3.142466   -7.949566  -13.772712
 C    4.130284   -8.755018  -12.961695
 C    3.341662   -6.574175  -13.891736
 C    2.492450   -5.755881  -14.619598
 C    1.180214   -7.688153  -15.186807
 C    1.400604   -6.322143  -15.271080
 O    0.585036   -5.493824  -15.979986
 C    1.282861  -10.496213  -16.731164
 C    2.453881  -10.073835  -17.353538
 C    2.482861   -9.843515  -18.725577
 C    1.333285  -10.035940  -19.480002
 C    0.153855  -10.460148  -18.870811
 C    0.120364  -10.689657  -17.497603
 O   -0.988128  -11.055901  -16.809806
 C   -2.108484  -11.497880  -17.541691
 H    0.564968  -15.517907  -10.754527
 H   -1.306736  -15.219609  -15.576261
 H    0.256807  -16.034019  -15.808234
 H   -0.974994  -16.778360  -14.748902
 H    2.046824  -10.474226  -12.136474
 H    3.763043   -8.939134  -11.946143
 H    4.342897   -9.725061  -13.419217
 H    5.074611   -8.211959  -12.860795
 H    4.201813   -6.130353  -13.392451
 H    2.660555   -4.685689  -14.698071
 H    0.333893   -8.138352  -15.701904
 H   -0.119600   -6.019816  -16.380214
 H    3.344513   -9.919668  -16.748988
 H    3.403421   -9.513749  -19.198892
 H    1.345003   -9.860104  -20.553249
 H   -0.737332  -10.609388  -19.472283
 H   -2.572358  -10.678283  -18.106319
 H   -1.842567  -12.309803  -18.231259
 H   -2.815185  -11.871235  -16.798981
