47 
4gk3_ligand_xtb.xyz
 O   18.665438  -16.422451   24.584770
 C   19.023903  -15.269811   24.488404
 N   19.363503  -14.524328   25.598572
 N   19.121023  -14.619655   23.276207
 C   18.787442  -15.310584   22.051364
 C   19.532704  -13.322447   23.236934
 C   19.862144  -12.613795   24.399901
 C   19.796235  -13.195078   25.697345
 O   20.056190  -12.697387   26.773100
 N   19.671104  -12.581150   22.115730
 C   20.087634  -11.405530   22.579626
 N   20.220898  -11.364891   23.940226
 N   20.423620  -10.199249   22.079859
 C   20.514474   -9.889464   20.672509
 C   19.238017  -10.291158   19.934853
 C   18.024481   -9.473571   20.370325
 C   16.758481   -9.941850   19.664598
 C   20.788767   -9.397830   23.155079
 C   20.660894  -10.123824   24.304924
 C   21.193314   -7.996904   22.998441
 C   22.456064   -7.560928   23.412421
 C   23.447917   -8.505052   24.019199
 C   22.781220   -6.220332   23.250137
 C   21.886865   -5.324367   22.693245
 C   20.637114   -5.759938   22.287550
 C   20.294745   -7.089728   22.441582
 H   19.285345  -15.024227   26.476980
 H   17.944603  -14.817627   21.566718
 H   19.642258  -15.291716   21.375935
 H   18.527568  -16.335181   22.309272
 H   21.364176  -10.436839   20.247091
 H   20.705030   -8.818381   20.575966
 H   19.052746  -11.349330   20.126300
 H   19.403052  -10.158945   18.864373
 H   18.196045   -8.417832   20.144386
 H   17.890043   -9.573088   21.450021
 H   16.863848   -9.842920   18.586549
 H   16.561603  -10.985965   19.895439
 H   15.902156   -9.351637   19.981706
 H   20.826158   -9.844940   25.323967
 H   23.254706   -8.617842   25.085501
 H   23.383075   -9.490447   23.563563
 H   24.459101   -8.123880   23.899409
 H   23.755538   -5.875612   23.565159
 H   22.164099   -4.287388   22.577368
 H   19.930255   -5.066670   21.857237
 H   19.313601   -7.432531   22.147958
