86 
4gk7_ligand_aiqm1.xyz
 C    1.061989   -1.868452   -0.761661
 O    0.280236   -1.965330   -1.706179
 C    2.434883   -1.342379   -0.967940
 C    3.439849   -1.375122   -0.081159
 C    4.770399   -0.857440   -0.364283
 C    5.776204   -0.889454    0.520655
 C    7.153072   -0.346334    0.283412
 C    7.519898    0.739606    1.295817
 C    8.992824    1.147395    1.239550
 C    9.462933    1.661856   -0.121651
 C    8.719902    2.909697   -0.591806
 C    9.240221    3.468102   -1.915246
 C    8.972912    2.549286   -3.104136
 N    0.712676   -2.234942    0.494587
 C   -0.602584   -2.748245    0.820208
 C   -1.593239   -1.585186    1.007548
 O   -2.108971   -1.338037    2.095711
 C   -0.531426   -3.591954    2.093493
 O    0.039350   -2.819977    3.142670
 C    0.323777   -4.829038    1.920596
 N   -1.821735   -0.850458   -0.093602
 C   -2.891926    0.127156   -0.089584
 C   -4.262734   -0.529800    0.178874
 O   -4.496526   -1.692051   -0.122843
 C   -2.949315    0.885347   -1.400362
 C   -3.718611    0.513353   -2.427760
 C   -3.945366    1.343577   -3.652829
 C   -5.352741    1.962065   -3.660231
 N   -5.595892    2.835202   -2.520073
 N   -5.165900    0.304932    0.710507
 C   -6.561773   -0.096801    0.887111
 C   -6.889608   -0.285073    2.374587
 C   -8.327939   -0.759647    2.577668
 C   -5.922703   -1.276456    3.021037
 C   -7.468756    0.915997    0.182208
 C   -7.006174    1.256042   -1.238577
 C   -6.088466    2.468843   -1.296553
 O   -5.830898    3.148794   -0.313798
 H    2.597275   -0.933454   -1.957911
 H    3.305162   -1.807564    0.908284
 H    4.928431   -0.431248   -1.351121
 H    5.593124   -1.311617    1.509957
 H    7.226572    0.044446   -0.736798
 H    7.875625   -1.163773    0.368195
 H    7.297386    0.372507    2.301904
 H    6.881055    1.615463    1.140868
 H    9.609089    0.287831    1.524114
 H    9.169012    1.917689    1.996765
 H   10.531013    1.890741   -0.060661
 H    9.366699    0.864661   -0.868625
 H    8.803577    3.677837    0.182374
 H    7.651329    2.688139   -0.691857
 H    8.772679    4.437954   -2.100411
 H   10.315796    3.655226   -1.830787
 H    9.473994    1.586632   -2.990358
 H    7.903669    2.354889   -3.211729
 H    9.326738    2.996698   -4.033563
 H    1.296386   -2.016431    1.284045
 H   -0.947528   -3.355813   -0.015521
 H   -1.552404   -3.882503    2.350318
 H   -0.618376   -2.146368    3.349057
 H    0.317844   -5.413028    2.839071
 H    1.355206   -4.559808    1.689804
 H   -0.063915   -5.447039    1.110349
 H   -1.418302   -1.166116   -0.967764
 H   -2.700689    0.841833    0.714965
 H   -2.344444    1.787711   -1.458692
 H   -4.291140   -0.408132   -2.349418
 H   -3.829112    0.738895   -4.552423
 H   -3.204381    2.147110   -3.698863
 H   -5.481707    2.547563   -4.572768
 H   -6.112179    1.182232   -3.670781
 H   -4.984189    3.633975   -2.435978
 H   -4.916593    1.263964    0.892219
 H   -6.647333   -1.066219    0.385632
 H   -6.774702    0.690032    2.863491
 H   -8.494085   -1.701941    2.047616
 H   -9.069475   -0.037137    2.230439
 H   -8.517496   -0.938664    3.637210
 H   -6.218379   -1.481572    4.052541
 H   -4.895796   -0.912205    3.030176
 H   -5.932997   -2.219759    2.471104
 H   -7.503668    1.828572    0.779438
 H   -8.479640    0.508801    0.140305
 H   -7.863288    1.486153   -1.876142
 H   -6.504380    0.397366   -1.684938
