43 
4gkh_ligand_xtb.xyz
 N   83.734734   49.750922  -38.299040
 C   82.651524   50.366564  -37.845683
 N   81.819616   49.969853  -36.910043
 C   82.174789   48.807049  -36.348189
 C   83.331991   48.064389  -36.688897
 C   84.093827   48.589626  -37.753065
 C   79.198979   48.636718  -35.770838
 C   79.939778   47.403206  -33.706538
 C   80.531235   49.829759  -34.007420
 N   85.190093   47.986568  -38.256139
 C   83.154818   41.765889  -35.508609
 C   82.161113   42.752385  -35.592768
 C   85.587154   46.164922  -35.712739
 C   84.473287   42.122457  -35.502530
 C   86.216604   43.855329  -35.565747
 C   82.500333   44.074596  -35.666724
 N   82.187310   46.987956  -35.091370
 C   84.247172   45.842132  -35.734992
 C   83.271018   46.921844  -35.839643
 C   84.857715   43.478108  -35.575603
 C   83.851122   44.477708  -35.654572
 N   81.529644   48.114118  -35.388112
 C   80.296517   48.492316  -34.713644
 C   86.571691   45.173526  -35.627114
 H   82.416776   51.308646  -38.324427
 H   79.045803   47.692959  -36.290354
 H   78.265281   48.930445  -35.299341
 H   79.484032   49.395328  -36.495131
 H   79.781779   46.454346  -34.211643
 H   80.744504   47.273049  -32.988502
 H   79.031104   47.678718  -33.178466
 H   81.324439   49.733238  -33.269007
 H   80.816717   50.584401  -34.735761
 H   79.622975   50.149820  -33.504409
 H   85.598241   48.387931  -39.082203
 H   85.418315   47.045247  -37.988423
 H   82.869335   40.725541  -35.450991
 H   81.121822   42.457581  -35.599854
 H   85.885310   47.204020  -35.729032
 H   85.247151   41.370225  -35.440655
 H   86.970078   43.083542  -35.499878
 H   81.736915   44.834025  -35.719590
 H   87.612058   45.463997  -35.605415
