46 
4gki_ligand_dft.xyz
 N    1.083584    2.996241    1.400271
 C    2.277568    2.468360    1.708358
 N    2.852914    1.378316    1.229742
 C    2.091693    0.770776    0.299076
 C    0.831471    1.201704   -0.145371
 C    0.339552    2.374223    0.479724
 C    3.682308   -1.722142    1.179120
 C    3.484592   -2.381838   -1.233919
 C   -3.174516   -2.584986    1.759346
 C   -1.936463   -2.713194    1.091714
 C   -4.267760    1.269492   -0.966115
 C   -3.016942    1.162813   -1.618811
 C   -4.032653   -1.572995    1.418249
 C   -4.593626    0.391620    0.030170
 C   -2.100855    0.191904   -1.279684
 C    0.452607    0.243683   -1.131935
 C   -3.694196   -0.642583    0.401982
 N    2.391103   -0.359581   -0.389052
 C    3.599114   -1.206026   -0.263690
 C    4.828846   -0.356453   -0.610504
 N    1.393086   -0.671337   -1.253828
 N   -0.854984    2.934983    0.173301
 C   -0.769449    0.144419   -2.003181
 C   -2.437676   -0.757683   -0.260339
 C   -1.575570   -1.825833    0.110030
 H    2.841779    3.014030    2.461754
 H    2.790678   -2.308257    1.425513
 H    4.561125   -2.366008    1.289577
 H    3.766022   -0.892302    1.885092
 H    2.611577   -3.000833   -1.012498
 H    3.404247   -2.040945   -2.268901
 H    4.384912   -2.996551   -1.134691
 H   -3.444535   -3.292291    2.537685
 H   -1.263898   -3.522782    1.358844
 H   -4.959872    2.052391   -1.260838
 H   -2.770962    1.872664   -2.405598
 H   -4.991836   -1.470380    1.919209
 H   -5.547882    0.466322    0.544936
 H    4.754630    0.020023   -1.635944
 H    4.920257    0.491569    0.072394
 H    5.733011   -0.969131   -0.531557
 H   -1.156663    3.670058    0.795958
 H   -1.574587    2.368747   -0.254378
 H   -0.750340    0.954941   -2.741609
 H   -0.676727   -0.791274   -2.566589
 H   -0.619117   -1.941919   -0.386714
