46 
4gki_ligand_aiqm1.xyz
 N   35.796610   12.975552   18.213310
 C   36.992817   12.418059   17.947992
 N   38.109718   12.994412   17.534219
 C   37.961304   14.326947   17.388042
 C   36.790566   15.056354   17.631394
 C   35.678156   14.298022   18.059129
 C   40.327537   13.947433   15.447350
 C   41.004369   16.219601   16.235298
 C   35.049920   17.401275   12.407001
 C   36.276731   17.402388   13.108082
 C   32.641659   17.943845   16.573249
 C   33.866198   17.899366   17.287105
 C   33.872482   17.518627   13.097886
 C   32.644652   17.796893   15.214094
 C   35.071869   17.721598   16.651534
 C   37.143797   16.412782   17.351734
 C   33.866663   17.637477   14.511833
 N   38.908095   15.207365   16.988891
 C   40.318883   14.918031   16.627474
 C   41.015735   14.308080   17.842855
 N   38.410325   16.470884   16.973614
 N   34.475988   14.846077   18.376653
 C   36.347398   17.681152   17.474477
 C   35.097489   17.614741   15.223736
 C   36.305498   17.503325   14.477324
 H   37.035582   11.346108   18.091699
 H   39.802213   14.386926   14.596733
 H   41.360372   13.743435   15.155885
 H   39.845717   13.010122   15.721037
 H   40.510047   16.675070   15.377236
 H   40.989727   16.929720   17.061474
 H   42.040075   16.002654   15.972402
 H   35.044087   17.314843   11.328228
 H   37.203803   17.325673   12.556174
 H   31.715076   18.085887   17.114380
 H   33.841455   18.014158   18.366253
 H   32.924995   17.530384   12.572011
 H   31.717332   17.813432   14.653533
 H   40.980701   15.004848   18.682750
 H   40.534114   13.374427   18.130114
 H   42.060879   14.107006   17.596635
 H   33.732511   14.177865   18.501223
 H   34.231351   15.731657   17.967253
 H   36.087738   17.827972   18.527192
 H   37.008284   18.499984   17.185097
 H   37.259383   17.511744   14.985420
