46 
4gki_ligand_ani-2x.xyz
 N   35.830592   12.980470   18.366009
 C   37.022387   12.417149   18.104851
 N   38.118847   12.981835   17.629826
 C   37.977180   14.301214   17.408690
 C   36.800529   15.028518   17.638364
 C   35.695949   14.283266   18.114171
 C   40.326404   13.845893   15.487087
 C   40.973227   16.180414   16.110245
 C   35.084396   17.589317   12.396875
 C   36.302852   17.607560   13.108378
 C   32.612249   17.822472   16.560399
 C   33.826862   17.798507   17.282925
 C   33.898122   17.620635   13.075492
 C   32.629951   17.744832   15.193829
 C   35.045236   17.684789   16.649850
 C   37.149389   16.380273   17.344912
 C   33.864931   17.670405   14.494918
 N   38.907539   15.186991   16.962262
 C   40.305845   14.899421   16.600555
 C   41.043106   14.364500   17.834561
 N   38.403100   16.449126   16.943850
 N   34.492013   14.874007   18.373125
 C   36.313361   17.630715   17.481823
 C   35.087974   17.661681   15.221550
 C   36.308239   17.644394   14.480065
 H   37.083555   11.352290   18.313902
 H   39.778392   14.208012   14.611994
 H   41.360490   13.641952   15.187518
 H   39.864701   12.917673   15.831072
 H   40.464553   16.560335   15.220347
 H   40.937258   16.951377   16.883145
 H   42.019413   15.979832   15.856035
 H   35.096320   17.555473   11.310147
 H   37.241972   17.592087   12.562377
 H   31.668491   17.893787   17.094877
 H   33.786532   17.843965   18.371508
 H   32.952424   17.615356   12.537681
 H   31.703859   17.751933   14.625569
 H   41.036210   15.107434   18.638259
 H   40.565919   13.450033   18.195207
 H   42.085614   14.144932   17.578144
 H   33.752948   14.205773   18.552800
 H   34.236161   15.631330   17.753001
 H   36.018233   17.743482   18.534416
 H   36.970642   18.478862   17.250652
 H   37.255932   17.659898   15.013737
