33 
4gkm_ligand_xtb.xyz
 O  -30.387864  -30.748122    6.802985
 C  -29.753784  -30.102092    7.800367
 O  -30.366899  -29.366836    8.523809
 C  -28.279388  -30.300678    7.932909
 C  -27.518858  -29.144852    8.083086
 C  -26.142772  -29.186521    8.232746
 C  -25.338712  -27.930452    8.362771
 C  -25.525100  -30.433546    8.231697
 C  -26.260849  -31.593504    8.114943
 C  -27.651028  -31.556214    7.984602
 N  -28.397479  -32.718600    7.881632
 C  -28.074611  -33.975836    8.304763
 C  -27.272033  -34.183246    9.435731
 C  -27.016507  -35.451295    9.900211
 C  -27.565150  -36.558407    9.261044
 C  -28.357500  -36.378062    8.149911
 C  -28.617304  -35.102774    7.634755
 C  -29.413745  -34.916020    6.405548
 O  -29.613958  -35.986270    5.624305
 O  -29.864359  -33.846179    6.046738
 H  -29.820240  -31.252862    6.204646
 H  -28.036183  -28.196844    8.076064
 H  -24.900737  -27.665034    7.400023
 H  -25.963937  -27.104447    8.690808
 H  -24.526388  -28.064508    9.073780
 H  -24.450518  -30.496396    8.324016
 H  -25.757332  -32.548203    8.099264
 H  -29.236620  -32.702139    7.307378
 H  -26.893729  -33.323984    9.966918
 H  -26.407452  -35.586472   10.781116
 H  -27.383388  -37.551312    9.641049
 H  -28.807792  -37.254486    7.700503
 H  -29.180985  -36.782907    5.957984
