33 
4gqr_ligand_aiqm1.xyz
 C   14.247437   14.131982   34.916878
 C   15.151118   14.541794   35.885910
 C   14.713807   14.799739   37.211520
 C   13.359392   14.635899   37.518272
 C   12.438259   14.227323   36.564135
 C   12.906730   13.980552   35.273948
 C   15.625411   15.218283   38.228849
 C   15.059283   15.432385   39.551253
 C   13.735749   15.247079   39.782547
 C   13.013574   15.409239   41.057778
 C   13.643796   15.159300   42.281270
 C   12.936257   15.320072   43.468251
 C   11.607568   15.728407   43.441656
 C   10.982136   15.972722   42.226789
 C   11.669011   15.809528   41.031289
 O   12.891964   14.880463   38.762281
 O   16.840277   15.402482   38.051687
 O    9.672916   16.368225   42.324836
 O   10.959673   15.874387   44.629996
 O   13.539557   15.074690   44.658077
 O   15.932528   15.828972   40.504188
 O   12.067204   13.576023   34.289396
 O   16.433779   14.690630   35.558778
 H   14.574152   13.932809   33.906706
 H   11.399754   14.108030   36.839078
 H   14.678194   14.855306   42.335378
 H   11.170473   15.991093   40.087296
 H    9.320122   16.519141   41.446026
 H   10.060924   16.167898   44.448099
 H   12.895432   15.252870   45.352663
 H   16.784761   15.888567   40.043345
 H   11.177062   13.496500   34.638373
 H   16.903301   14.983511   36.369354
