33 
4gqr_ligand_ani-2x.xyz
 C   14.246120   14.098959   34.928184
 C   15.158284   14.498840   35.894450
 C   14.724216   14.792846   37.213700
 C   13.361704   14.675204   37.494342
 C   12.433677   14.283388   36.541036
 C   12.894698   13.994091   35.257809
 C   15.643679   15.210263   38.253885
 C   15.049001   15.434741   39.563995
 C   13.714670   15.258884   39.769953
 C   13.012340   15.432504   41.051612
 C   13.661134   15.217709   42.270918
 C   12.955271   15.348412   43.458119
 C   11.612418   15.720262   43.442181
 C   10.968696   15.947918   42.229340
 C   11.653084   15.796593   41.038341
 O   12.873253   14.964975   38.728415
 O   16.867291   15.375230   38.094771
 O    9.650524   16.306701   42.335982
 O   10.981327   15.843450   44.645191
 O   13.577303   15.124565   44.638990
 O   15.892782   15.834724   40.537822
 O   12.058152   13.600556   34.267083
 O   16.441887   14.595981   35.548603
 H   14.582534   13.872289   33.924162
 H   11.386092   14.214487   36.814689
 H   14.706733   14.940376   42.307842
 H   11.147589   15.953699   40.090809
 H    9.275413   16.434456   41.455356
 H   10.063866   16.104067   44.476743
 H   12.927491   15.270681   45.343086
 H   16.769849   15.896584   40.122631
 H   11.156409   13.565960   34.609777
 H   16.944114   14.896502   36.336082
