33 
4gqr_ligand_xtb.xyz
 C   14.222470   14.284169   34.902823
 C   15.160356   14.478025   35.900859
 C   14.720500   14.714990   37.229350
 C   13.347599   14.749092   37.510327
 C   12.417247   14.552294   36.495847
 C   12.860394   14.321339   35.199823
 C   15.652890   14.922032   38.299080
 C   15.077846   15.155262   39.616745
 C   13.723172   15.172727   39.806316
 C   13.021171   15.393485   41.066572
 C   13.704670   15.621006   42.259791
 C   13.008858   15.827169   43.440261
 C   11.611348   15.808077   43.442183
 C   10.926528   15.580613   42.248987
 C   11.622011   15.375575   41.074432
 O   12.882621   14.970078   38.753540
 O   16.894373   14.915367   38.177131
 O    9.554493   15.574675   42.319852
 O   10.949514   16.014638   44.622467
 O   13.682090   16.047343   44.593828
 O   15.996882   15.344039   40.587409
 O   11.995448   14.124791   34.182009
 O   16.460325   14.442562   35.617737
 H   14.541339   14.103427   33.890699
 H   11.363922   14.581815   36.729925
 H   14.778213   15.642161   42.293618
 H   11.080056   15.200604   40.157898
 H    9.191951   15.408357   41.443495
 H   10.003051   15.967701   44.435865
 H   13.032960   16.167749   45.301288
 H   16.861500   15.270836   40.127245
 H   11.085250   14.171568   34.500382
 H   16.960552   14.602334   36.458119
