52 
4gue_ligand_ani-2x.xyz
 O    4.930856   -0.684521   -1.061854
 C    3.585069   -0.414547   -0.729140
 C    2.967403   -1.551586    0.070470
 O    3.862376   -1.786438    1.152092
 C    3.489813    0.887837    0.058611
 O    4.007794    1.941366   -0.722349
 C    2.026467    1.171635    0.366083
 C    1.824951    2.447884    1.159917
 O    1.479327    0.098834    1.144025
 C    1.582021   -1.177777    0.596433
 O    0.669949   -1.357247   -0.470264
 C   -0.634336   -1.289218   -0.047542
 C   -1.183393   -2.426481    0.683812
 O   -0.537808   -3.461438    0.895025
 C   -1.390069   -0.181493   -0.282423
 C   -0.979822    0.898283   -1.191938
 C   -1.221084    2.236576   -0.839678
 C   -0.758058    3.259134   -1.644533
 O   -0.953161    4.553402   -1.290384
 C   -0.089262    2.953316   -2.842422
 O    0.321200    4.041146   -3.565940
 C    0.106925    1.633434   -3.216654
 C   -0.330892    0.604026   -2.389567
 O   -2.565507    0.037245    0.361326
 C   -3.192524   -0.998338    0.992583
 C   -4.469781   -0.745962    1.465579
 C   -5.148385   -1.783371    2.099463
 O   -6.399006   -1.513183    2.545343
 C   -4.566449   -3.041133    2.264970
 C   -3.275740   -3.269021    1.797165
 C   -2.555450   -2.236080    1.149129
 O   -2.745820   -4.477490    1.975048
 H    5.331765   -1.059260   -0.261882
 H    3.046090   -0.286689   -1.675090
 H    2.876655   -2.438787   -0.569736
 H    3.560777   -2.566439    1.634594
 H    4.046411    0.783430    1.005448
 H    4.851333    1.614187   -1.067528
 H    1.503166    1.256600   -0.596289
 H    2.282377    3.293253    0.636122
 H    0.754954    2.643932    1.283480
 H    2.278926    2.352183    2.151648
 H    1.307755   -1.866281    1.396319
 H   -1.743252    2.473054    0.083368
 H   -0.559124    5.104103   -1.982634
 H    0.766715    3.744958   -4.368810
 H    0.617678    1.398392   -4.148478
 H   -0.164059   -0.428384   -2.687157
 H   -4.929076    0.224849    1.336267
 H   -6.765274   -2.303293    2.961806
 H   -5.094529   -3.852895    2.756745
 H   -1.827192   -4.455704    1.629519
