36 
4gw8_ligand_xtb.xyz
 C  -17.233272   34.924604   -2.516026
 C  -17.613059   35.033702   -3.839506
 C  -18.682978   35.840429   -4.192803
 C  -19.367329   36.539381   -3.211855
 C  -18.996236   36.441156   -1.883732
 C  -17.923823   35.626455   -1.527477
 N  -17.493354   35.467977   -0.210947
 C  -17.965881   35.972286    0.923957
 N  -19.086082   36.837466    0.956426
 C  -19.251578   37.109428    2.194607
 C  -18.157906   36.373267    3.015016
 N  -17.424773   35.694142    2.081578
 O  -18.019191   36.423678    4.210523
 C  -20.295277   37.968037    2.781610
 C  -20.904672   38.895865    1.765420
 C  -21.618426   38.351604    0.692500
 C  -22.106187   39.222933   -0.247154
 C  -21.917359   40.602152   -0.139439
 C  -21.227630   41.148145    0.913685
 C  -20.718669   40.264467    1.864063
 O  -22.817619   38.950024   -1.386628
 C  -23.076407   40.199642   -1.989211
 O  -22.509728   41.226916   -1.205744
 H  -16.399888   34.293534   -2.240990
 H  -17.072820   34.486270   -4.597085
 H  -18.979759   35.922711   -5.227174
 H  -20.202800   37.168714   -3.478832
 H  -19.526041   36.986829   -1.120956
 H  -16.692166   34.860933   -0.075231
 H  -19.859999   38.513129    3.623038
 H  -21.058856   37.300065    3.198633
 H  -21.767602   37.289503    0.599856
 H  -21.083288   42.211982    0.996165
 H  -20.163755   40.665943    2.698429
 H  -24.164911   40.353476   -2.067781
 H  -22.635279   40.220556   -2.999036
