36 
4gw8_ligand_aiqm1.xyz
 C  -16.562882   34.820063   -2.671535
 C  -16.852924   34.029253   -3.776223
 C  -18.164887   33.640205   -4.032032
 C  -19.172994   34.053985   -3.168636
 C  -18.899152   34.847539   -2.055303
 C  -17.579483   35.234388   -1.805711
 N  -17.177573   36.036290   -0.709603
 C  -17.856974   36.608728    0.286746
 N  -19.290557   36.472481    0.393785
 C  -19.561981   37.150453    1.450194
 C  -18.263186   37.736635    2.039255
 N  -17.241974   37.318469    1.195172
 O  -18.194144   38.409040    3.036331
 C  -20.920712   37.413429    2.010201
 C  -21.383933   38.801410    1.616704
 C  -22.073949   38.975069    0.400798
 C  -22.443544   40.257058    0.068880
 C  -22.166315   41.342713    0.888115
 C  -21.507799   41.197138    2.086224
 C  -21.112413   39.894860    2.438305
 O  -23.150747   40.684724   -1.027726
 C  -22.981519   42.100930   -1.014879
 O  -22.691738   42.479960    0.328092
 H  -15.540045   35.121716   -2.475359
 H  -16.050081   33.721698   -4.431550
 H  -18.397163   33.025367   -4.889875
 H  -20.195794   33.757469   -3.359043
 H  -19.692424   35.160606   -1.395785
 H  -16.189321   36.228619   -0.655751
 H  -20.869257   37.335969    3.095881
 H  -21.613815   36.659727    1.633149
 H  -22.306829   38.136537   -0.242176
 H  -21.302669   42.040843    2.727240
 H  -20.573584   39.750296    3.364466
 H  -23.900988   42.579158   -1.337587
 H  -22.131249   42.364575   -1.652864
