61 
4gzx_ligand_dft.xyz
 C    0.215870   -0.795945    1.212448
 C   -0.097077   -0.893865   -0.304253
 C   -0.776633   -2.196603   -0.694970
 C   -2.209293   -2.297355   -0.170780
 C   -2.997431   -1.039023   -0.574721
 C   -2.217961    0.223095   -0.176509
 C   -2.873602    1.540879   -0.693776
 C   -3.272728    2.425909    0.487995
 C   -3.892823    3.738577    0.041537
 C   -5.382960   -1.649925   -0.292013
 C   -6.692404   -1.226935    0.338905
 N   -4.298482   -0.932086    0.075790
 O   -0.049499    0.143575    1.920371
 O    0.865353   -1.885911    1.637045
 O   -2.743870   -3.483426   -0.689961
 O   -0.897948    0.200981   -0.688062
 O   -2.037869    2.264130   -1.559906
 O   -4.220493    1.705621    1.265113
 O   -4.380312    4.351641    1.228157
 O   -5.326438   -2.599233   -1.073172
 C    5.420010    1.041497   -1.078942
 C    5.929779    0.364120    0.184843
 C    5.247676   -0.984579    0.348627
 C    3.728933   -0.814558    0.333131
 C    3.314785    0.008520   -0.891831
 C    1.842775    0.389137   -0.870222
 O    6.043607    2.277870   -1.163867
 O    7.320121    0.123110    0.147369
 O    5.594272   -1.572682    1.587516
 O    3.314686   -0.156176    1.511927
 O    4.028776    1.229379   -0.988986
 O    1.094229   -0.813360   -1.011742
 H   -0.801373   -2.223708   -1.788646
 H   -0.193967   -3.051458   -0.346893
 H   -2.198035   -2.329223    0.934633
 H   -3.138471   -1.060560   -1.664411
 H   -2.168966    0.261389    0.918381
 H   -3.791642    1.285309   -1.241737
 H   -2.376420    2.638617    1.090433
 H   -3.140408    4.354509   -0.462451
 H   -4.713433    3.532510   -0.662013
 H   -7.458711   -1.203172   -0.438941
 H   -6.635645   -0.250862    0.827491
 H   -6.992078   -1.979382    1.074383
 H   -4.437636   -0.135551    0.692840
 H    1.166920   -1.690053    2.538688
 H   -3.689438   -3.338152   -0.890844
 H   -1.159213    1.860552   -1.498966
 H   -4.627552    2.358039    1.854255
 H   -4.911105    5.117534    0.986405
 H    5.649538    0.414290   -1.962276
 H    5.653329    1.011135    1.028837
 H    5.552499   -1.634936   -0.486013
 H    3.249857   -1.800552    0.257339
 H    3.506723   -0.609414   -1.785725
 H    1.614436    0.910824    0.063449
 H    1.628067    1.058929   -1.709104
 H    5.747326    2.711323   -1.973927
 H    7.753591    0.979893    0.042128
 H    6.547505   -1.445402    1.692682
 H    3.895234   -0.499657    2.208236
