26 
4h71_ligand_ani-2x.xyz
 O    0.308966  -11.613689   -3.315371
 N   -0.693536  -12.064164   -2.473473
 C   -1.866325  -11.968202   -3.003243
 C   -2.133342  -11.448604   -4.334104
 C   -3.383713  -11.364604   -4.854416
 C   -4.538050  -11.815567   -4.049903
 C   -4.244815  -12.338040   -2.704853
 C   -3.004609  -12.421022   -2.189890
 O   -5.692210  -11.767445   -4.459271
 C   -2.738687  -12.958132   -0.816942
 C   -3.638855  -10.824380   -6.232397
 C   -2.949212  -11.676633   -7.308653
 C   -3.190374   -9.360179   -6.355799
 H    1.103930  -11.749359   -2.784626
 H   -1.263897  -11.128791   -4.891742
 H   -5.112816  -12.659907   -2.140975
 H   -3.673103  -13.254990   -0.330735
 H   -2.074532  -13.826916   -0.860041
 H   -2.242433  -12.207513   -0.194009
 H   -4.723183  -10.875679   -6.382169
 H   -3.143792  -11.267964   -8.306860
 H   -1.863430  -11.695771   -7.157288
 H   -3.309279  -12.710495   -7.283910
 H   -2.116991   -9.260792   -6.155393
 H   -3.381454   -8.982615   -7.366848
 H   -3.724659   -8.722549   -5.643689
