71 
4hcu_ligand_aiqm1.xyz
 C   -7.444850   -0.099355   -1.298341
 C   -5.399068    0.394763    0.478073
 C   -6.197068   -0.677248   -1.526796
 C    1.463338    1.576942    3.166480
 C   -7.703237    0.723876   -0.202851
 C    5.834846    2.133606   -1.274384
 C    4.421193    1.645746   -0.965886
 C   -1.021874   -1.403061   -0.832005
 C   -3.383536   -1.822403   -1.697907
 C    2.243665    0.516156    1.393489
 C    7.683137   -0.052081    0.554228
 C   -9.025265    2.860839   -0.036594
 C   -0.143436   -3.679388   -2.167635
 C    0.757339   -2.922695   -1.426122
 C   -1.480398   -3.302513   -2.240633
 C   -6.650063    0.961030    0.685066
 C    1.040770   -0.172537    1.193882
 C    0.319147   -1.779030   -0.748773
 C   -1.929269   -2.164998   -1.566971
 C   -5.160451   -0.427292   -0.624297
 C    1.266096   -0.944540    0.005620
 C    0.053373    0.056485    2.173760
 C    6.745154    0.936574   -1.549837
 C    5.408381   -0.514863   -0.125417
 C    4.441369    0.632816    0.179815
 C   10.000272    0.443526    1.407247
 C   -9.710945    0.852340    1.312041
 C    9.009407    0.638223    0.269582
 C   -9.074173    1.330656    0.003880
 N    2.501342    1.412930    2.362495
 N    0.272353    0.946050    3.142319
 N    2.501960   -0.754335   -0.423935
 N    3.096226    0.114523    0.429134
 N    6.724867    0.017958   -0.420271
 N   -1.163932   -0.575147    2.185438
 N   -3.858007   -0.953281   -0.759529
 O   -4.073650   -2.319949   -2.570371
 O    7.489982   -0.664603    1.591128
 H   -8.245658   -0.298355   -2.002111
 H   -4.595884    0.597276    1.180747
 H   -6.035215   -1.310247   -2.385831
 H    1.582190    2.297951    3.963305
 H    6.227298    2.700841   -0.425786
 H    5.825767    2.798516   -2.139246
 H    4.001043    1.157522   -1.851508
 H    3.763483    2.481103   -0.709238
 H   -1.330840   -0.489229   -0.341209
 H  -10.028933    3.278906    0.070705
 H   -8.413029    3.251556    0.780312
 H   -8.600590    3.220800   -0.974768
 H    0.200023   -4.558552   -2.697765
 H    1.804298   -3.194832   -1.377508
 H   -2.195314   -3.866290   -2.822821
 H   -6.801400    1.595445    1.550071
 H    7.765367    1.243564   -1.760131
 H    6.376893    0.395972   -2.426869
 H    5.032491   -1.080062   -0.983742
 H    5.498321   -1.177287    0.730929
 H    4.743348    1.122105    1.103090
 H   10.942013    0.946059    1.185986
 H   10.195450   -0.615198    1.565923
 H    9.597356    0.843134    2.335948
 H   -9.780522   -0.235850    1.346335
 H  -10.716133    1.265957    1.422136
 H   -9.121113    1.178012    2.172839
 H    8.823569    1.703446    0.107690
 H    9.415757    0.236185   -0.662891
 H   -9.709677    0.993116   -0.821811
 H   -1.192804   -1.510049    1.810128
 H   -1.678154   -0.439469    3.040881
 H   -3.204698   -0.651565   -0.058809
