71 
4hcu_ligand_xtb.xyz
 C   -7.461066   -0.167040   -1.229921
 C   -5.387298    0.354813    0.502318
 C   -6.207272   -0.683781   -1.499237
 C    1.361877    1.683361    3.069529
 C   -7.705533    0.610479   -0.105790
 C    5.972023    2.105484   -1.351371
 C    4.515376    1.717049   -1.120340
 C   -1.013104   -1.188297   -1.033545
 C   -3.370364   -1.681820   -1.838748
 C    2.188701    0.723036    1.261176
 C    7.628284   -0.139139    0.708700
 C   -9.065476    2.692370    0.169586
 C   -0.118290   -3.518197   -2.239065
 C    0.772689   -2.719746   -1.545368
 C   -1.454649   -3.169090   -2.314650
 C   -6.644191    0.863271    0.756333
 C    0.975969    0.033677    1.008910
 C    0.327105   -1.552366   -0.929957
 C   -1.914896   -2.003111   -1.706746
 C   -5.154604   -0.425362   -0.629058
 C    1.242972   -0.701890   -0.183015
 C   -0.013944    0.195801    1.997758
 C    6.835197    0.845857   -1.462029
 C    5.340803   -0.388755   -0.033527
 C    4.405643    0.820865    0.117707
 C    9.960768    0.089910    1.592295
 C   -9.636459    0.622214    1.485755
 C    9.018085    0.419535    0.441393
 C   -9.083182    1.162213    0.165146
 N    2.403359    1.560566    2.278459
 N    0.199779    1.046296    2.996843
 N    2.483106   -0.485788   -0.572872
 N    3.052899    0.365579    0.291805
 N    6.698301    0.048750   -0.266136
 N   -1.212930   -0.450127    1.980107
 N   -3.857653   -0.910625   -0.824592
 O   -4.035412   -2.110256   -2.759810
 O    7.359540   -0.746878    1.725603
 H   -8.269126   -0.376862   -1.916110
 H   -4.572904    0.565332    1.183281
 H   -6.039295   -1.284295   -2.377004
 H    1.467690    2.367314    3.900797
 H    6.325715    2.711244   -0.514560
 H    6.063489    2.694897   -2.264307
 H    4.133862    1.163703   -1.981540
 H    3.899515    2.608090   -0.985564
 H   -1.316983   -0.234035   -0.626213
 H  -10.073245    3.080107    0.301634
 H   -8.444450    3.069919    0.978108
 H   -8.669810    3.068686   -0.771248
 H    0.229615   -4.419844   -2.720371
 H    1.816428   -2.982124   -1.471385
 H   -2.163805   -3.783384   -2.848097
 H   -6.795261    1.465474    1.639728
 H    7.876082    1.111708   -1.631879
 H    6.490457    0.246261   -2.313709
 H    4.995829   -0.995131   -0.877759
 H    5.335090   -0.992763    0.875831
 H    4.661300    1.384239    1.021144
 H   10.951186    0.495291    1.399650
 H   10.035719   -0.986679    1.717873
 H    9.579494    0.508253    2.519710
 H   -9.643728   -0.465568    1.476254
 H  -10.654230    0.974212    1.639360
 H   -9.029223    0.953882    2.324328
 H    8.949687    1.503171    0.319889
 H    9.403118   -0.010512   -0.486194
 H   -9.746158    0.831756   -0.642129
 H   -1.260021   -1.328225    1.487718
 H   -1.734997   -0.380608    2.840307
 H   -3.207494   -0.636167   -0.101087
