71 
4hcv_ligand_ani-2x.xyz
 C    7.435529    0.020220    0.374872
 C    5.036635   -1.338086    0.542698
 C    6.282067    0.614523   -0.117589
 C   -1.712936   -2.435253    1.702726
 C    7.425451   -1.250064    0.954127
 C   -6.348200    2.291436    0.957961
 C   -4.838838    2.058840    0.851597
 C    1.185199    1.423176   -0.945652
 C    3.679984    1.573198   -1.313210
 C   -2.326739   -0.584757    0.655462
 C   -7.482905   -0.577307   -0.393848
 C    9.726900   -2.101825    0.371836
 C    0.702938    2.616782   -3.390316
 C   -0.365027    2.107039   -2.655285
 C    2.012283    2.472005   -2.936903
 C    6.201803   -1.916375    1.025852
 C   -1.057176   -0.417141    0.088211
 C   -0.114624    1.467594   -1.441565
 C    2.261679    1.834458   -1.724161
 C    5.064724   -0.065348   -0.036086
 C   -1.172301    0.789864   -0.682197
 C   -0.134496   -1.454499    0.365306
 C   -7.048060    1.889088   -0.343540
 C   -5.285745    0.304927   -0.895689
 C   -4.525920    0.624920    0.399669
 C   -9.728026   -1.639552    0.042763
 C    9.301065   -1.064823    2.630304
 C   -8.954000   -0.335864   -0.084931
 C    8.694600   -1.885871    1.485518
 N   -2.691980   -1.576444    1.487921
 N   -0.466806   -2.439750    1.192648
 N   -2.408088    1.254763   -0.633524
 N   -3.095510    0.437973    0.196345
 N   -6.714547    0.519015   -0.713870
 N    1.136110   -1.457877   -0.184357
 N    3.850470    0.480296   -0.496305
 O    4.591243    2.273965   -1.725390
 O   -7.010592   -1.703717   -0.375825
 H    8.367594    0.578225    0.293033
 H    4.095427   -1.880252    0.612570
 H    6.317525    1.594994   -0.571092
 H   -1.939259   -3.260798    2.374871
 H   -6.555673    3.344792    1.182006
 H   -6.756648    1.704135    1.792162
 H   -4.393276    2.750712    0.124219
 H   -4.353139    2.248360    1.814314
 H    1.330163    1.065196    0.068750
 H    9.334728   -2.753492   -0.415970
 H   10.008848   -1.149292   -0.091842
 H   10.637147   -2.560546    0.774831
 H    0.514373    3.117918   -4.336163
 H   -1.387326    2.195861   -3.013575
 H    2.853924    2.844618   -3.514074
 H    6.165882   -2.908473    1.472748
 H   -8.132125    2.008970   -0.277673
 H   -6.701704    2.541202   -1.157200
 H   -5.138290   -0.739230   -1.174862
 H   -4.906582    0.953530   -1.696858
 H   -4.824122   -0.087671    1.171724
 H   -9.687597   -2.210100   -0.889371
 H   -9.302881   -2.268910    0.829017
 H  -10.777771   -1.441732    0.281885
 H    9.560286   -0.054145    2.293952
 H    8.601883   -0.968973    3.467598
 H   10.216853   -1.539579    3.000876
 H   -9.387887    0.291286   -0.874113
 H   -9.025110    0.241842    0.846451
 H    8.424716   -2.871047    1.886993
 H    1.132955   -1.124930   -1.145446
 H    1.565048   -2.376901   -0.103620
 H    3.036273   -0.094896   -0.293111
