34 
4hev_ligand_xtb.xyz
 O   -5.358156   -4.567835   22.167237
 C   -4.693609   -5.272715   22.908295
 N   -3.889526   -4.698374   23.825927
 O   -3.761794   -3.303716   23.797201
 C   -4.703673   -6.779252   22.936180
 C   -3.882700   -7.390335   21.778498
 C   -2.449574   -6.848825   21.787805
 C   -1.644613   -7.484612   20.654194
 C   -3.837250   -8.912448   21.952633
 C   -3.033728   -9.545479   20.816953
 C   -3.688338   -9.212277   19.477673
 C   -1.606857   -9.000518   20.837366
 C   -4.533225   -7.066786   20.431269
 C   -3.724191   -7.695534   19.297916
 C   -2.299335   -7.145333   19.316431
 H   -3.166822   -5.141394   24.366420
 H   -4.412824   -3.048490   23.108616
 H   -5.740123   -7.107237   22.840287
 H   -4.309414   -7.132632   23.890665
 H   -1.973175   -7.071657   22.746949
 H   -2.459845   -5.764440   21.656147
 H   -0.622729   -7.088640   20.672811
 H   -4.853349   -9.313561   21.954414
 H   -3.377307   -9.163633   22.912074
 H   -3.011864  -10.632722   20.953907
 H   -4.703383   -9.614804   19.449106
 H   -3.123007   -9.671718   18.663818
 H   -1.125314   -9.250357   21.785947
 H   -1.022532   -9.457100   20.035670
 H   -4.591495   -5.985950   20.296188
 H   -5.553868   -7.455643   20.415187
 H   -4.196992   -7.451982   18.340264
 H   -1.720530   -7.580209   18.498561
 H   -2.317856   -6.062394   19.175688
