27 
4hki_ligand_xtb.xyz
 O    5.737021  -12.490545   12.504386
 C    5.717750  -12.852914   13.811510
 C    6.582726  -12.297635   14.758301
 C    7.566472  -11.278994   14.346321
 C    7.506787  -10.967753   12.928609
 C    6.622850  -11.558641   12.092151
 C    6.536096  -11.281797   10.652199
 C    6.946762  -10.058832   10.123428
 C    6.861498   -9.823802    8.764425
 C    6.366504  -10.800347    7.915090
 C    5.948718  -12.015048    8.432931
 C    6.028759  -12.254927    9.791356
 O    8.350769  -10.755839   15.121081
 C    6.499104  -12.724316   16.085272
 C    5.578612  -13.676751   16.458413
 C    4.720688  -14.222913   15.507384
 C    4.784571  -13.818294   14.192112
 H    8.216951  -10.249318   12.554688
 H    7.313425   -9.284419   10.778850
 H    7.179096   -8.872043    8.365316
 H    6.303091  -10.613018    6.853637
 H    5.559584  -12.778441    7.775678
 H    5.708012  -13.203120   10.195003
 H    7.178934  -12.280220   16.796584
 H    5.518556  -14.002021   17.485692
 H    3.998262  -14.969805   15.800386
 H    4.127004  -14.229847   13.442394
