31 
4hkn_ligand_ani-2x.xyz
 C    5.824462  -12.374912  -13.630854
 O    7.426463  -12.680096  -15.310153
 C    6.117936  -12.554298  -14.981753
 O    2.831585  -12.524888  -16.487192
 C    5.112496  -12.604078  -15.948449
 O    1.116729  -12.189077  -14.558200
 C    3.781339  -12.471267  -15.559434
 O    4.240527  -12.077751  -11.941196
 C    3.453702  -12.282434  -14.198425
 O    0.607052  -10.263479   -7.564312
 C    4.494245  -12.240895  -13.270241
 O    2.590528  -11.022316   -5.953767
 C    2.069070  -12.138118  -13.763716
 C    1.905740  -11.926528  -12.345691
 C    2.967117  -11.874892  -11.504853
 C    2.903842  -11.651165  -10.043764
 C    1.775664  -11.049158   -9.474216
 C    1.702267  -10.849777   -8.107175
 C    2.766747  -11.260483   -7.289772
 C    3.888775  -11.853599   -7.845571
 C    3.962284  -12.044869   -9.220774
 H    6.609201  -12.342277  -12.886975
 H    7.503962  -12.798355  -16.265118
 H    1.963969  -12.417484  -16.017521
 H    5.336965  -12.745839  -17.001129
 H    0.742312  -10.216356   -6.606185
 H    3.361908  -11.331876   -5.463447
 H    0.893239  -11.835369  -11.979436
 H    0.948512  -10.700972  -10.087185
 H    4.712463  -12.165501   -7.205372
 H    4.840401  -12.501891   -9.662427
