32 
4hl5_ligand_ani-2x.xyz
 C   -1.347050  -10.376382  -23.470171
 O   -2.557320  -10.836971  -22.910244
 C   -2.577872  -11.075449  -21.574660
 C   -1.486123  -10.896386  -20.726087
 C   -1.618860  -11.177680  -19.370292
 C   -3.797504  -11.527299  -21.057137
 C   -3.918212  -11.796654  -19.708879
 C   -2.825346  -11.632537  -18.841844
 C   -2.952783  -11.948764  -17.401088
 O   -4.254856  -12.011235  -17.000979
 C   -4.546226  -12.237926  -15.685651
 C   -5.895571  -12.225897  -15.349767
 C   -6.253701  -12.456826  -14.028271
 O   -7.578779  -12.435435  -13.735313
 C   -5.274521  -12.701264  -13.051802
 C   -3.943249  -12.710224  -13.419067
 C   -3.552997  -12.478748  -14.740753
 C   -2.131821  -12.488987  -15.144808
 O   -1.219330  -12.718381  -14.364946
 C   -1.927091  -12.194817  -16.556548
 H   -1.043342   -9.415273  -23.034623
 H   -0.537210  -11.104638  -23.330568
 H   -1.537658  -10.246761  -24.536367
 H   -0.532205  -10.544073  -21.102794
 H   -0.761018  -11.011696  -18.723363
 H   -4.633239  -11.654437  -21.739754
 H   -4.864224  -12.142198  -19.304204
 H   -6.647962  -12.040076  -16.106814
 H   -7.699695  -12.607875  -12.793502
 H   -5.562825  -12.882394  -12.018635
 H   -3.162544  -12.898598  -12.688034
 H   -0.905166  -12.204419  -16.910535
