30 
4hlf_ligand_xtb.xyz
 C   -6.796447  -38.863538    9.808182
 C   -6.688521  -39.089311    8.448269
 O   -7.088438  -40.272202    7.923832
 C   -6.158356  -38.087513    7.619477
 O   -6.079049  -38.370621    6.280882
 C   -5.742551  -36.888394    8.169859
 C   -5.849304  -36.671394    9.531030
 C   -6.383344  -37.652432   10.363492
 C   -6.498858  -37.398406   11.803583
 O   -5.656914  -36.431652   12.235396
 C   -5.665513  -36.082946   13.544227
 C   -4.779698  -35.084491   13.936883
 C   -4.739121  -34.683825   15.262634
 O   -3.864670  -33.709294   15.607763
 C   -5.586858  -35.282474   16.200845
 C   -6.459030  -36.267555   15.806475
 C   -6.516164  -36.686831   14.476115
 C   -7.450542  -37.739502   14.046571
 O   -8.221335  -38.301666   14.808622
 C   -7.363764  -38.034604   12.626344
 H   -7.187813  -39.658048   10.420590
 H   -6.936710  -40.246014    6.968786
 H   -5.698265  -37.619540    5.813102
 H   -5.333057  -36.120111    7.528153
 H   -5.526379  -35.732354    9.950088
 H   -4.125891  -34.624687   13.214662
 H   -3.932061  -33.523279   16.552702
 H   -5.549296  -34.964599   17.233910
 H   -7.123230  -36.744754   16.510646
 H   -8.037819  -38.779862   12.239678
