28 
4hlg_ligand_xtb.xyz
 C   -7.112359  -38.028891    9.713433
 C   -6.995563  -38.159838    8.334886
 O   -7.378210  -39.334870    7.774180
 C   -6.494666  -37.105538    7.578069
 C   -6.109136  -35.933039    8.203174
 C   -6.220004  -35.798961    9.573124
 C   -6.730806  -36.847673   10.339247
 C   -6.855439  -36.689854   11.794798
 O   -5.996379  -35.779721   12.301012
 C   -6.013881  -35.522628   13.632793
 C   -5.106222  -34.576940   14.111991
 C   -5.080113  -34.277380   15.456347
 C   -5.951042  -34.910086   16.339492
 C   -6.846488  -35.843161   15.869107
 C   -6.891616  -36.164056   14.510852
 C   -7.848516  -37.161002   13.994965
 O   -8.643363  -37.753422   14.706281
 C   -7.748505  -37.359010   12.559042
 H   -7.483306  -38.869387   10.275957
 H   -7.249782  -39.304663    6.818284
 H   -6.404505  -37.207882    6.504825
 H   -5.718908  -35.118097    7.612343
 H   -5.923003  -34.881918   10.056253
 H   -4.438114  -34.097399   13.413767
 H   -4.377306  -33.545636   15.825438
 H   -5.920738  -34.666864   17.390506
 H   -7.535483  -36.352501   16.525790
 H   -8.435247  -38.057083   12.110744
