28 
4hlg_ligand_aiqm1.xyz
 C   -7.099937  -38.038621    9.712219
 C   -6.984424  -38.159961    8.330289
 O   -7.371077  -39.346911    7.777523
 C   -6.493643  -37.104406    7.566299
 C   -6.108026  -35.924381    8.196640
 C   -6.212645  -35.789837    9.574932
 C   -6.719744  -36.847498   10.334573
 C   -6.871988  -36.695138   11.794449
 O   -6.020371  -35.767991   12.302033
 C   -6.026385  -35.517792   13.647270
 C   -5.105167  -34.575141   14.101670
 C   -5.069408  -34.278952   15.454539
 C   -5.940307  -34.910995   16.351878
 C   -6.847643  -35.843449   15.883422
 C   -6.904359  -36.162593   14.517189
 C   -7.864221  -37.154811   13.994629
 O   -8.664936  -37.742351   14.711082
 C   -7.765660  -37.364679   12.556499
 H   -7.472475  -38.885323   10.273412
 H   -7.244496  -39.303495    6.827728
 H   -6.409474  -37.204059    6.490148
 H   -5.722130  -35.107088    7.602561
 H   -5.910965  -34.877303   10.068512
 H   -4.441786  -34.099151   13.393599
 H   -4.356375  -33.549269   15.814617
 H   -5.901154  -34.669752   17.404675
 H   -7.536840  -36.353969   16.540944
 H   -8.443064  -38.072584   12.103370
