30 
4hlk_ligand_xtb.xyz
 C  -39.153832  -10.769872   12.892128
 C  -39.090171  -11.022243   14.320171
 O  -38.278165  -10.497027   15.065168
 C  -40.106424  -11.984886   14.785281
 C  -40.190908  -12.351664   16.129890
 C  -41.141601  -13.252476   16.552267
 C  -42.029455  -13.806045   15.633592
 C  -41.965225  -13.460043   14.301765
 C  -41.001532  -12.546930   13.871274
 O  -40.983871  -12.241113   12.550105
 C  -40.068368  -11.361571   12.088599
 C  -40.161849  -11.143108   10.641144
 C  -39.684839   -9.974349   10.046930
 C  -39.779930   -9.796441    8.682701
 C  -40.349709  -10.770637    7.867429
 C  -40.438244  -10.557874    6.388725
 C  -40.830828  -11.929643    8.462382
 C  -40.743606  -12.114976    9.828196
 H  -38.421408  -10.095258   12.481512
 H  -39.487213  -11.903429   16.814930
 H  -41.202181  -13.531557   17.593035
 H  -42.775590  -14.512516   15.965010
 H  -42.645709  -13.878261   13.576535
 H  -39.257891   -9.194335   10.657578
 H  -39.410125   -8.884471    8.236557
 H  -41.011370   -9.657834    6.169695
 H  -39.442916  -10.426725    5.965904
 H  -40.915707  -11.402665    5.899335
 H  -41.279281  -12.698035    7.849141
 H  -41.117855  -13.023715   10.274221
