29 
4hlm_ligand_aiqm1.xyz
 C   -7.204352   37.838115   -9.699814
 C   -7.103866   37.997000   -8.327494
 O   -7.511920   39.155706   -7.748368
 C   -6.580852   36.960301   -7.548133
 O   -6.528182   37.212615   -6.204118
 C   -6.155395   35.782076   -8.140352
 C   -6.251419   35.623994   -9.520379
 C   -6.784095   36.644586  -10.305653
 C   -6.916674   36.460792  -11.760279
 O   -6.068457   35.510749  -12.231529
 C   -6.052231   35.229871  -13.570764
 C   -5.136303   34.264161  -13.985171
 C   -5.078267   33.936782  -15.330170
 C   -5.922032   34.560636  -16.258481
 C   -6.824805   35.516223  -15.829098
 C   -6.903547   35.866975  -14.471886
 C   -7.859609   36.883448  -13.989770
 O   -8.638270   37.464944  -14.734937
 C   -7.787028   37.124066  -12.555513
 H   -7.599018   38.664488  -10.276081
 H   -7.364383   39.078911   -6.799784
 H   -6.149966   36.457084   -5.750478
 H   -5.746484   34.986666   -7.527269
 H   -5.917217   34.709465   -9.986805
 H   -4.493776   33.795024  -13.253615
 H   -4.368983   33.189154  -15.659528
 H   -5.865801   34.295151  -17.304634
 H   -7.493588   36.021277  -16.511427
 H   -8.464882   37.851542  -12.135773
