29 
4hlm_ligand_ani-2x.xyz
 C   -7.205722   37.829186   -9.696673
 C   -7.092360   38.005653   -8.329065
 O   -7.487759   39.170628   -7.759499
 C   -6.568799   36.970542   -7.538914
 O   -6.506027   37.245150   -6.199700
 C   -6.158198   35.782887   -8.122277
 C   -6.265145   35.613320   -9.498317
 C   -6.796174   36.631236  -10.293801
 C   -6.936133   36.443348  -11.757371
 O   -6.110408   35.468323  -12.230215
 C   -6.068749   35.213046  -13.572902
 C   -5.148593   34.251440  -13.993347
 C   -5.068163   33.946700  -15.342167
 C   -5.897957   34.588403  -16.269370
 C   -6.807076   35.535823  -15.833456
 C   -6.902776   35.860158  -14.476086
 C   -7.873072   36.869602  -13.993083
 O   -8.652600   37.450426  -14.733498
 C   -7.801631   37.104043  -12.558061
 H   -7.592179   38.654394  -10.288764
 H   -7.334111   39.099486   -6.805631
 H   -6.137420   36.487591   -5.729054
 H   -5.748797   34.986063   -7.503347
 H   -5.938347   34.689012   -9.961024
 H   -4.519831   33.767151  -13.253409
 H   -4.354019   33.201066  -15.681087
 H   -5.829613   34.343386  -17.325059
 H   -7.469468   36.052605  -16.522771
 H   -8.500272   37.821132  -12.149350
