29 
4hmh_ligand_ani-2x.xyz
 C    1.524465  -11.061411   -9.459719
 C    1.468761  -10.874337   -8.080996
 O    0.340938  -10.303337   -7.575470
 C    2.536891  -11.266621   -7.275833
 C    3.662798  -11.838462   -7.861275
 C    3.733185  -12.022303   -9.234010
 C    2.653146  -11.638057  -10.039838
 C    2.708579  -11.855818  -11.507921
 O    3.987515  -12.007928  -11.953236
 C    4.223119  -12.153002  -13.291061
 C    5.558766  -12.231716  -13.669896
 C    5.859594  -12.387346  -15.016481
 O    7.173038  -12.457668  -15.351174
 C    4.836880  -12.468093  -15.975434
 C    3.520334  -12.390985  -15.565606
 C    3.187497  -12.231639  -14.217761
 C    1.782496  -12.151351  -13.767941
 O    0.832580  -12.243256  -14.531252
 C    1.642264  -11.946822  -12.332684
 H    0.683753  -10.721840  -10.058639
 H    0.425984  -10.232472   -6.616674
 H    2.490998  -11.124033   -6.197518
 H    4.496370  -12.140297   -7.232255
 H    4.611330  -12.461181   -9.694859
 H    6.344589  -12.172692  -12.926439
 H    7.253037  -12.564610  -16.306963
 H    5.080337  -12.591253  -17.028486
 H    2.706753  -12.453059  -16.282260
 H    0.633402  -11.896515  -11.946620
