86 
4hnp_ligand_aiqm1.xyz
 C    5.632756    0.531058    1.076983
 C    4.300514    0.833554    1.740367
 O    4.142238    0.868759    2.949396
 C    6.733333    0.189166    2.064734
 C    8.058705   -0.086886    1.367402
 C    9.211748   -0.394372    2.320627
 C    9.022995   -1.692844    3.098434
 N    3.301221    1.107243    0.856609
 C    1.934846    1.232187    1.292147
 C    1.063806    0.381203    0.373280
 O    1.495753   -0.093968   -0.672601
 C    1.446622    2.697563    1.347995
 C    2.314610    3.514754    2.299020
 C    1.402666    3.352031   -0.029425
 C   -2.558623    0.098175    0.415947
 C   -1.295874   -2.478501   -2.330215
 C   -0.494482   -2.671395   -1.055585
 N   -0.192290    0.189095    0.800284
 O   -2.482929   -2.145699   -2.289858
 N   -0.663096   -2.707597   -3.499725
 C    0.763337   -2.988368   -3.571220
 C   -1.342110   -2.413941   -4.749813
 C   -1.197959   -0.465311    0.003858
 C   -1.175959   -2.010682    0.135969
 O   -2.675985    0.781910    1.426087
 N   -3.542035   -0.237783   -0.422441
 C   -4.943763    0.131872   -0.230559
 C   -5.790859   -1.151888   -0.126869
 O   -5.821297   -1.868146   -1.353811
 C   -5.370503   -2.007275    1.057683
 C   -5.317524   -1.324986    2.398362
 C   -5.087194   -3.308513    0.920194
 C   -5.419736    1.049437   -1.354826
 C   -4.568455    2.301495   -1.571074
 C   -5.119366    3.104480   -2.747217
 C   -4.492713    3.182111   -0.325081
 H    5.490699   -0.288081    0.363058
 H    5.910386    1.407210    0.480391
 H    6.427100   -0.676929    2.656244
 H    6.848519    1.010033    2.776068
 H    8.322414    0.781094    0.753843
 H    7.930886   -0.926983    0.672500
 H   10.138400   -0.449819    1.744019
 H    9.332625    0.438192    3.020661
 H    9.890189   -1.903674    3.725459
 H    8.887178   -2.537126    2.418956
 H    8.149281   -1.647341    3.748897
 H    3.407906    0.810591   -0.102766
 H    1.862615    0.829251    2.304554
 H    0.429993    2.667579    1.753185
 H    3.324231    3.617682    1.894245
 H    2.397112    3.039378    3.274795
 H    1.897449    4.514472    2.429968
 H    0.760227    2.810782   -0.727684
 H    1.025763    4.372081    0.057123
 H    2.405679    3.402897   -0.458023
 H    0.505395   -2.262065   -1.189769
 H   -0.392535   -3.747796   -0.889858
 H   -0.558949    0.713799    1.580550
 H    1.368305   -2.102581   -3.361897
 H    1.047075   -3.773509   -2.870953
 H    0.986603   -3.335515   -4.576915
 H   -1.237211   -3.254871   -5.437488
 H   -2.393190   -2.242140   -4.539267
 H   -0.916254   -1.526739   -5.222477
 H   -1.040196   -0.211786   -1.044210
 H   -2.193572   -2.388185    0.214171
 H   -0.653493   -2.271273    1.056162
 H   -3.292502   -0.824051   -1.209870
 H   -5.003131    0.659675    0.718672
 H   -6.825408   -0.839472    0.040364
 H   -4.934166   -2.205216   -1.533591
 H   -5.151243   -2.059808    3.186724
 H   -4.515545   -0.584078    2.453819
 H   -6.257005   -0.808811    2.614202
 H   -4.826684   -3.904253    1.784962
 H   -5.147301   -3.807778   -0.036383
 H   -5.452562    0.475279   -2.285205
 H   -6.448766    1.353115   -1.135122
 H   -3.550581    1.982526   -1.824478
 H   -6.120366    3.477605   -2.512450
 H   -4.484781    3.965425   -2.964124
 H   -5.188910    2.494895   -3.649920
 H   -5.496974    3.485866   -0.012637
 H   -4.007453    2.678808    0.511944
 H   -3.929551    4.093405   -0.539406
