89 
4hrc_ligand_aiqm1.xyz
 C    5.717437   -2.059326   -0.887174
 C    4.527641   -2.167142    0.042820
 O    4.430365   -3.064414    0.866920
 C    6.988874   -1.711745   -0.107044
 C    6.922213   -0.336479    0.553868
 C    8.250492    0.108299    1.164837
 C    8.692393   -0.761974    2.337318
 N    3.609072   -1.171175   -0.071220
 C    2.348263   -1.227396    0.621481
 C    1.243555   -0.897600   -0.380689
 O    1.498309   -0.466756   -1.499549
 C    2.292563   -0.296670    1.854975
 C    3.349503   -0.695641    2.880361
 C    2.441199    1.174028    1.477765
 C   -2.178167   -0.206523    0.423856
 C   -1.286040   -0.966719   -3.738829
 C   -1.058836   -2.097197   -2.748540
 N   -0.002277   -1.122624    0.058721
 O   -2.323974   -0.304745   -3.691962
 N   -0.345984   -0.747718   -4.675255
 C    0.930651   -1.452036   -4.687809
 C   -0.478946    0.402360   -5.553404
 C   -1.194666   -0.695064   -0.640566
 C   -1.824479   -1.838927   -1.457865
 O   -2.197456   -0.738971    1.529397
 N   -2.990487    0.786227    0.045754
 O   -4.601145    3.059941   -0.631522
 O   -4.413207    1.162142   -2.605493
 C   -4.075839    1.258977    0.915240
 C   -5.161065    1.969726    0.090228
 C   -4.485246    2.506310    3.146059
 C   -3.773610    3.370988    4.186887
 C   -5.048728    1.248107    3.808963
 C   -3.512186    2.168170    2.015377
 C   -5.250115    0.281422   -1.860491
 C   -6.845751    0.081237    0.035483
 C   -6.021226    1.059703   -0.799784
 H    5.839176   -3.028386   -1.374474
 H    5.535105   -1.307028   -1.660760
 H    7.840910   -1.743951   -0.791894
 H    7.155304   -2.482830    0.649088
 H    6.606047    0.399598   -0.193527
 H    6.152756   -0.337973    1.333207
 H    8.153983    1.143506    1.500105
 H    9.026687    0.105080    0.391154
 H    7.922615   -0.788106    3.110477
 H    9.609736   -0.380270    2.787390
 H    8.880910   -1.789848    2.024831
 H    3.602122   -0.604065   -0.906226
 H    2.200444   -2.249715    0.975771
 H    1.306209   -0.443406    2.308227
 H    3.219615   -0.122801    3.800698
 H    3.298796   -1.757229    3.119163
 H    4.351072   -0.491494    2.497528
 H    2.354952    1.796144    2.369330
 H    1.684658    1.500028    0.759979
 H    3.425690    1.353368    1.040766
 H    0.002948   -2.210828   -2.541402
 H   -1.403348   -3.020569   -3.222993
 H   -0.161104   -1.375872    1.023069
 H    1.571981   -1.139400   -3.861441
 H    1.424975   -1.225574   -5.629179
 H    0.780868   -2.530473   -4.631588
 H   -1.476233    0.812141   -5.423711
 H    0.263632    1.163546   -5.308710
 H   -0.334170    0.099716   -6.592396
 H   -0.932117    0.116668   -1.316438
 H   -1.841235   -2.736515   -0.836370
 H   -2.855203   -1.584919   -1.702611
 H   -2.895616    1.178358   -0.878633
 H   -4.421533    2.758029   -1.529659
 H   -3.769196    0.626659   -3.088802
 H   -4.503468    0.368639    1.379759
 H   -5.843857    2.415515    0.818294
 H   -5.320980    3.092611    2.747353
 H   -3.354403    4.269392    3.731993
 H   -4.459629    3.677410    4.978489
 H   -2.955718    2.810478    4.647515
 H   -5.724637    0.699563    3.147527
 H   -5.606189    1.504004    4.712527
 H   -4.235604    0.575246    4.094035
 H   -2.643951    1.666814    2.455217
 H   -3.153994    3.092521    1.551220
 H   -5.959992   -0.209030   -2.534032
 H   -4.660642   -0.503557   -1.374276
 H   -7.555439   -0.457462   -0.593126
 H   -7.407621    0.602099    0.812373
 H   -6.205356   -0.656933    0.522726
 H   -6.702759    1.740205   -1.316773
