89 
4hrc_ligand_xtb.xyz
 C    5.712825   -2.170205   -0.983222
 C    4.486051   -2.361574   -0.109213
 O    4.299043   -3.362009    0.553082
 C    6.896259   -1.683623   -0.137384
 C    6.728064   -0.237244    0.321704
 C    7.907523    0.268058    1.153931
 C    7.974272   -0.366301    2.538330
 N    3.646082   -1.301938   -0.081784
 C    2.373412   -1.339514    0.596246
 C    1.294553   -0.895078   -0.390651
 O    1.572978   -0.346844   -1.446543
 C    2.351892   -0.440952    1.856394
 C    3.307063   -0.993287    2.909998
 C    2.699441    1.004419    1.505860
 C   -2.134352   -0.292034    0.442209
 C   -1.283137   -0.932348   -3.796296
 C   -0.984083   -2.040102   -2.799926
 N    0.044364   -1.170725   -0.004074
 O   -2.402098   -0.424671   -3.855497
 N   -0.298826   -0.559387   -4.626040
 C    1.046730   -1.091814   -4.577871
 C   -0.535410    0.498743   -5.583344
 C   -1.150824   -0.701253   -0.667578
 C   -1.779926   -1.820884   -1.514342
 O   -2.096687   -0.846594    1.527442
 N   -2.993264    0.663699    0.092461
 O   -4.392542    3.095401   -0.460048
 O   -4.067192    1.196289   -2.435191
 C   -4.058653    1.144067    0.958748
 C   -5.050574    2.008932    0.149030
 C   -4.378846    2.285838    3.271689
 C   -3.607947    3.105223    4.306451
 C   -4.941738    1.023698    3.922142
 C   -3.440281    1.959372    2.105948
 C   -5.124755    0.428409   -1.893733
 C   -6.956920    0.358074   -0.195822
 C   -5.925239    1.253048   -0.876232
 H    5.962068   -3.140976   -1.414191
 H    5.509454   -1.464170   -1.790141
 H    7.811962   -1.766060   -0.727796
 H    6.991363   -2.343437    0.725729
 H    6.620233    0.401027   -0.560054
 H    5.814737   -0.146413    0.912473
 H    7.814953    1.350966    1.268399
 H    8.838724    0.071956    0.617382
 H    7.048665   -0.190401    3.082564
 H    8.793851    0.062483    3.110499
 H    8.133848   -1.439010    2.471128
 H    3.735729   -0.561894   -0.763383
 H    2.200272   -2.379429    0.898430
 H    1.333689   -0.465745    2.260512
 H    3.291728   -0.366275    3.798430
 H    3.024753   -2.004396    3.191625
 H    4.323070   -1.025379    2.524892
 H    2.578134    1.639851    2.379905
 H    2.050638    1.379152    0.717195
 H    3.731057    1.080758    1.170283
 H    0.074994   -2.088961   -2.566050
 H   -1.283251   -2.983461   -3.264442
 H   -0.144226   -1.573338    0.907554
 H    1.534095   -0.829106   -3.636095
 H    1.617599   -0.658506   -5.395501
 H    1.044529   -2.176376   -4.697103
 H   -1.575471    0.808451   -5.504305
 H    0.112267    1.351714   -5.371909
 H   -0.342043    0.141374   -6.596437
 H   -0.889656    0.149661   -1.304338
 H   -1.803436   -2.734394   -0.918424
 H   -2.804349   -1.552457   -1.775615
 H   -2.948977    1.072019   -0.834926
 H   -4.076701    2.797164   -1.324965
 H   -3.556205    0.640209   -3.054520
 H   -4.571023    0.270845    1.373385
 H   -5.734407    2.459105    0.878912
 H   -5.210502    2.898210    2.908175
 H   -3.202649    4.008151    3.855885
 H   -4.259252    3.395073    5.127924
 H   -2.783787    2.521924    4.711236
 H   -5.662152    0.530973    3.274038
 H   -5.446848    1.273926    4.852597
 H   -4.139054    0.323874    4.142163
 H   -2.599028    1.384441    2.496749
 H   -3.057832    2.889668    1.680818
 H   -5.801767    0.105426   -2.695625
 H   -4.733294   -0.473137   -1.402751
 H   -7.621626   -0.079175   -0.937098
 H   -7.555301    0.933350    0.505740
 H   -6.473068   -0.452062    0.344581
 H   -6.453467    2.037820   -1.430514
