67 
4htx_ligand_ani-2x.xyz
 C    5.432430    3.843097    2.748652
 O    5.158545    3.011574    1.630314
 C    3.885635    2.505724    1.592252
 C    3.685373    1.155233    1.835740
 C    2.789231    3.320511    1.254498
 O    3.068421    4.633526    1.031022
 C    1.997726    5.468497    0.645301
 C    1.519275    2.756563    1.171630
 C    1.341002    1.396981    1.425741
 C    2.414363    0.583445    1.763717
 C    2.194585   -0.895958    1.999713
 C    1.783482   -1.601559    0.742132
 N    2.702207   -1.593009   -0.296043
 C    2.470171   -2.130603   -1.553231
 O    3.297624   -2.073201   -2.440778
 N    0.606922   -2.136639    0.672628
 N    0.317701   -2.695106   -0.541178
 C    1.149656   -2.739119   -1.644874
 C    0.421880   -3.359263   -2.634998
 C    0.835361   -3.670242   -4.036840
 N   -0.814759   -3.680089   -2.149376
 C   -0.867580   -3.258610   -0.899690
 C   -2.049218   -3.301831    0.018252
 C   -2.733000   -4.685253   -0.118042
 C   -3.823646   -4.918585    0.916304
 O   -3.322269   -4.839712   -1.391886
 C   -3.049185   -2.157842   -0.248976
 C   -2.427746   -0.763652   -0.217865
 C   -3.480320    0.345216   -0.344868
 C   -2.897213    1.740715   -0.326929
 C   -3.069617    2.582086    0.774239
 C   -2.540167    3.870628    0.779998
 C   -1.831072    4.335612   -0.322760
 C   -1.641246    3.504116   -1.423672
 C   -2.167754    2.216093   -1.420919
 H    5.297932    3.288836    3.687212
 H    6.477958    4.146782    2.655637
 H    4.791390    4.730887    2.750184
 H    4.553695    0.554271    2.093515
 H    2.417699    6.466023    0.510632
 H    1.218460    5.501854    1.418949
 H    1.551113    5.130445   -0.299938
 H    0.664536    3.371336    0.908195
 H    0.340910    0.968220    1.361750
 H    1.390132   -1.065611    2.720798
 H    3.106189   -1.353725    2.402899
 H    3.581820   -1.104731   -0.180936
 H    1.843975   -3.285178   -4.204346
 H    0.830072   -4.750542   -4.208856
 H    0.147897   -3.208253   -4.750817
 H   -1.658669   -3.199381    1.036819
 H   -1.948435   -5.446840    0.028278
 H   -4.661759   -4.233788    0.759639
 H   -4.202333   -5.940128    0.826933
 H   -3.440189   -4.782097    1.934347
 H   -2.612629   -4.691088   -2.042850
 H   -3.839831   -2.206083    0.512720
 H   -3.535815   -2.342196   -1.216322
 H   -1.875085   -0.622126    0.720978
 H   -1.703596   -0.660483   -1.036247
 H   -4.211027    0.249018    0.469123
 H   -4.035921    0.202479   -1.282928
 H   -3.630641    2.226048    1.636016
 H   -2.687329    4.512061    1.645289
 H   -1.427425    5.346394   -0.325366
 H   -1.084363    3.858899   -2.287509
 H   -2.015529    1.569352   -2.283609
