67 
4htx_ligand_aiqm1.xyz
 C    5.088181    4.117105    2.630772
 O    5.021562    3.079420    1.653489
 C    3.778286    2.528936    1.503650
 C    3.588739    1.197367    1.850867
 C    2.710254    3.265113    0.955396
 O    2.982825    4.551877    0.615964
 C    1.940764    5.301316    0.016431
 C    1.468981    2.647946    0.798761
 C    1.295449    1.313345    1.158085
 C    2.353031    0.572850    1.674278
 C    2.164145   -0.893210    1.995941
 C    1.777193   -1.649111    0.751594
 N    2.718089   -1.733004   -0.244849
 C    2.519638   -2.345832   -1.496831
 O    3.397396   -2.384794   -2.331247
 N    0.581085   -2.131180    0.669398
 N    0.306023   -2.732982   -0.538589
 C    1.183040   -2.872862   -1.601006
 C    0.466277   -3.521184   -2.583878
 C    0.938705   -3.918530   -3.937799
 N   -0.802723   -3.760024   -2.130691
 C   -0.877516   -3.271564   -0.894836
 C   -2.102065   -3.270851   -0.028911
 C   -2.828281   -4.622160   -0.190453
 C   -3.978965   -4.794004    0.779095
 O   -3.361241   -4.769487   -1.492279
 C   -2.989346   -2.064387   -0.369370
 C   -2.308422   -0.717746   -0.147866
 C   -3.263957    0.448060   -0.404733
 C   -2.689670    1.807883   -0.100582
 C   -2.491634    2.222755    1.221150
 C   -2.009021    3.497449    1.510253
 C   -1.708638    4.384481    0.478543
 C   -1.882086    3.975106   -0.842339
 C   -2.364526    2.699092   -1.124096
 H    4.791172    3.733814    3.610509
 H    6.126084    4.437619    2.658140
 H    4.446701    4.953731    2.355631
 H    4.437528    0.654687    2.255370
 H    2.372322    6.266455   -0.228626
 H    1.106453    5.443149    0.707880
 H    1.581555    4.818785   -0.893114
 H    0.630983    3.191876    0.391027
 H    0.327890    0.842099    1.022940
 H    1.361285   -1.033337    2.717642
 H    3.085530   -1.318970    2.398560
 H    3.612597   -1.284233   -0.123274
 H    1.262386   -3.042209   -4.499803
 H    1.800857   -4.581387   -3.861983
 H    0.139013   -4.421084   -4.477139
 H   -1.762104   -3.170109    1.007913
 H   -2.087030   -5.411452    0.005019
 H   -4.777123   -4.080680    0.572548
 H   -4.389956   -5.796037    0.667678
 H   -3.645764   -4.667054    1.811416
 H   -2.629369   -4.618673   -2.106235
 H   -3.887897   -2.114571    0.252380
 H   -3.324236   -2.151957   -1.406347
 H   -1.931525   -0.668329    0.880923
 H   -1.429423   -0.624906   -0.795806
 H   -4.162403    0.304364    0.203714
 H   -3.586650    0.420941   -1.447923
 H   -2.729565    1.545757    2.034288
 H   -1.873701    3.793872    2.542195
 H   -1.338688    5.378721    0.702917
 H   -1.647670    4.647723   -1.657505
 H   -2.500826    2.394210   -2.154850
