52 
4hva_ligand_xtb.xyz
 C   -8.634103    0.014512    0.193406
 O   -7.499188    0.772742    0.528893
 C   -6.257833    0.285383    0.205846
 C   -6.066792   -0.927968   -0.446415
 C   -4.807395   -1.395691   -0.763635
 C   -3.680009   -0.650419   -0.431891
 C   -3.863255    0.564156    0.222414
 C   -5.123385    1.048606    0.548812
 O   -5.095133    2.253955    1.183874
 C   -6.273968    2.891186    1.621938
 C   -2.353098   -1.132706   -0.761608
 C   -1.109471   -0.595710   -0.547712
 C   -0.172904   -1.518324   -1.089261
 C   -0.927771   -2.546785   -1.590800
 O   -2.227951   -2.324323   -1.398875
 C    1.298875   -1.462976   -1.146002
 O    1.969647   -2.335049   -1.668935
 N    1.848284   -0.362966   -0.580400
 C    3.271398   -0.145483   -0.528142
 C    3.823323   -0.515010    0.864321
 C    5.321382   -0.505190    0.869457
 C    6.029002   -1.547786    0.276987
 C    7.413071   -1.538166    0.243126
 C    8.117863   -0.485533    0.796563
 C    7.418357    0.564176    1.391069
 C    6.024011    0.551438    1.426543
 C    8.121396    1.653345    1.955327
 N    8.686968    2.542817    2.406752
 C    3.565825    1.316656   -0.874578
 O    2.908122    2.140015    0.067366
 H   -8.720694   -0.127808   -0.888572
 H   -8.631837   -0.960147    0.691855
 H   -9.484184    0.596268    0.547542
 H   -6.919747   -1.528617   -0.717854
 H   -4.696959   -2.340923   -1.270233
 H   -3.021655    1.176260    0.500632
 H   -6.817282    2.283838    2.348587
 H   -6.935944    3.137289    0.789328
 H   -5.935135    3.810658    2.099582
 H   -0.902683    0.338345   -0.067739
 H   -0.632028   -3.450049   -2.085807
 H    1.278803    0.325666   -0.116999
 H    3.721033   -0.798135   -1.284332
 H    3.457779   -1.513717    1.110406
 H    3.430629    0.197404    1.590738
 H    5.484819   -2.373260   -0.157633
 H    7.946285   -2.356285   -0.217369
 H    9.197279   -0.466740    0.775463
 H    5.495797    1.370656    1.893309
 H    4.650688    1.483441   -0.851991
 H    3.199097    1.526485   -1.888840
 H    3.110668    3.060371   -0.125015
