52 
4hva_ligand_dft.xyz
 C    8.854400    0.212766   -0.980388
 O    7.756204    1.008404   -0.592707
 C    6.553400    0.402082   -0.441735
 C    6.313593   -0.956153   -0.633100
 C    5.032088   -1.479311   -0.473880
 C    3.965818   -0.656597   -0.118436
 C    4.214747    0.707197    0.088867
 C    5.480936    1.238764   -0.068576
 O    5.657125    2.583467    0.094716
 C    6.403671    2.952571    1.244838
 C    2.615012   -1.187445    0.041181
 C    1.408560   -0.610272    0.299235
 C    0.447151   -1.674207    0.340170
 C    1.149696   -2.814037    0.101921
 O    2.454380   -2.536939   -0.082099
 C   -1.014740   -1.657815    0.576129
 O   -1.663872   -2.690016    0.700980
 N   -1.583613   -0.422503    0.660845
 C   -3.018315   -0.259438    0.791384
 C   -3.717081   -0.464933   -0.570688
 C   -5.217171   -0.364522   -0.475973
 C   -5.986839   -1.472997   -0.112844
 C   -7.369016   -1.374266    0.021189
 C   -8.009849   -0.162481   -0.202298
 C   -7.248541    0.954014   -0.563245
 C   -5.861158    0.851292   -0.699870
 C   -7.891549    2.219958   -0.787529
 N   -8.405762    3.244196   -0.961956
 C   -3.288462    1.106523    1.402915
 O   -2.783374    2.080945    0.501689
 H    9.071396   -0.563766   -0.235783
 H    8.683347   -0.257909   -1.956576
 H    9.704311    0.892111   -1.051826
 H    7.118740   -1.623291   -0.918610
 H    4.865669   -2.538545   -0.635216
 H    3.421053    1.390042    0.374644
 H    7.434781    2.591248    1.184620
 H    5.930495    2.563269    2.155643
 H    6.400125    4.043614    1.273332
 H    1.233572    0.444826    0.455346
 H    0.853321   -3.848597    0.037255
 H   -1.070755    0.392645    0.356481
 H   -3.371645   -1.027429    1.486933
 H   -3.427437   -1.455811   -0.932650
 H   -3.330945    0.278505   -1.274569
 H   -5.491953   -2.424751    0.063958
 H   -7.949916   -2.247608    0.300456
 H   -9.085849   -0.072218   -0.099465
 H   -5.277224    1.727313   -0.968142
 H   -4.366790    1.233779    1.564166
 H   -2.781187    1.167370    2.375690
 H   -2.899303    2.952312    0.895841
