59 
4hvb_ligand_aiqm1.xyz
 C   -0.101314    2.432265   -0.048456
 C   -0.775628    3.680150   -0.174506
 C   -2.141989    3.696102   -0.260973
 C   -2.861583    2.480320   -0.209901
 C   -2.100015    1.283003   -0.085121
 N   -0.744586    1.281155   -0.026908
 N   -4.221470    2.538435   -0.284326
 C   -4.895229    1.406256   -0.232028
 C   -4.240334    0.173888   -0.098079
 C   -2.856576    0.086821   -0.020513
 C    1.369595    2.381889    0.038589
 C    2.068692    1.237787   -0.362905
 N    3.402353    1.141263   -0.362937
 C    4.119223    2.180998    0.079151
 C    3.509368    3.349760    0.533413
 C    2.126061    3.457387    0.506406
 C    5.608979    2.017245    0.062794
 N   -4.753818   -1.102984   -0.010575
 C   -3.716381   -2.003482    0.127680
 N   -2.544729   -1.254923    0.122155
 C   -1.247130   -1.935621    0.264324
 C   -0.400186   -1.813912   -0.993806
 C    0.910378   -2.579375   -0.831721
 N    1.600840   -2.164724    0.384781
 C    0.808245   -2.281952    1.606305
 C   -0.470531   -1.469065    1.485493
 O   -3.813275   -3.212521    0.231280
 C   -6.140998   -1.496167   -0.046537
 C    2.961252   -2.185025    0.521181
 O    3.504603   -2.060754    1.609368
 C    3.804379   -2.337215   -0.761067
 O    3.545176   -1.295583   -1.683519
 C    5.277710   -2.428114   -0.410873
 H   -0.211759    4.600661   -0.227473
 H   -2.702804    4.615211   -0.369862
 H   -5.976399    1.465382   -0.292856
 H    1.514940    0.371875   -0.694634
 H    4.115265    4.165942    0.905902
 H    1.647515    4.357276    0.869613
 H    5.892232    1.150262    0.657375
 H    5.957198    1.841569   -0.954699
 H    6.102058    2.901774    0.465260
 H   -1.519354   -2.983569    0.401590
 H   -0.945771   -2.217602   -1.851557
 H   -0.195118   -0.761021   -1.184305
 H    0.700130   -3.656062   -0.783125
 H    1.546903   -2.392986   -1.686984
 H    1.426920   -1.937632    2.429776
 H    0.569255   -3.338699    1.786013
 H   -0.211019   -0.417958    1.369091
 H   -1.079036   -1.592008    2.386395
 H   -6.690515   -1.043597    0.779485
 H   -6.159824   -2.578947    0.050739
 H   -6.598825   -1.204002   -0.992086
 H    3.491571   -3.260681   -1.255601
 H    3.715635   -0.443544   -1.235005
 H    5.861560   -2.561907   -1.320491
 H    5.590623   -1.509457    0.085200
 H    5.459474   -3.256386    0.271759
