42 
4hys_ligand_ani-2x.xyz
 N   -2.082950   -2.235837   10.229582
 C   -2.769744   -1.203970   10.732549
 N   -2.521594   -0.571277   11.887209
 C   -1.060256   -2.651776   10.981249
 C   -0.713206   -2.090322   12.196957
 C   -1.515002   -1.022523   12.616325
 N   -1.288521   -0.394204   13.835546
 N   -3.810949   -0.726465   10.002524
 C   -4.717089    0.277299   10.531736
 C   -5.601764   -0.236009   11.681440
 C   -6.508947    0.879346   12.201279
 C   -7.369639    1.463893   11.087107
 C   -6.500416    1.959043    9.928434
 C   -5.579984    0.854097    9.409401
 O   -8.142405    2.511366   11.650807
 C   -0.346248   -0.115746   15.736402
 N   -0.293161   -0.846203   14.652326
 C   -1.394723    0.854859   15.674227
 C   -1.985471    0.649903   14.420216
 C   -3.058943    1.437835   13.974120
 C   -3.524769    2.407696   14.836122
 C   -2.945660    2.617305   16.108281
 C   -1.884017    1.854666   16.538196
 H   -0.492722   -3.488801   10.579152
 H    0.113610   -2.441078   12.800564
 H   -4.120078   -1.332577    9.258147
 H   -4.087343    1.083696   10.932610
 H   -4.970178   -0.628054   12.486625
 H   -6.212656   -1.073172   11.311543
 H   -5.893929    1.686843   12.628260
 H   -7.157043    0.515941   13.005992
 H   -8.031656    0.665010   10.708472
 H   -5.902919    2.808838   10.288180
 H   -7.136726    2.338704    9.117591
 H   -6.186174    0.040318    8.982273
 H   -4.933062    1.230680    8.608723
 H   -8.700407    2.869826   10.949194
 H    0.351846   -0.284640   16.546260
 H   -3.487130    1.291569   12.992359
 H   -4.358844    3.036866   14.533862
 H   -3.346576    3.394793   16.751798
 H   -1.436657    2.018061   17.514658
