46 
4hzw_ligand_ani-2x.xyz
 C    0.332885   -2.317714   -0.970697
 C    1.590843   -2.010869   -0.641728
 C    1.942413   -0.648349   -0.123643
 C    0.652115    0.007090    0.451057
 C   -0.461620   -0.126723   -0.591111
 O   -0.730341   -1.504088   -0.811049
 C   -0.109814   -3.637618   -1.518507
 O   -1.248403   -3.906860   -1.813592
 O    0.910158   -4.508413   -1.652142
 C   -1.777712    0.497592   -0.144477
 C   -2.874551    0.405773   -1.219813
 C   -3.521005   -0.977753   -1.361621
 O   -4.683490   -0.758941   -2.168590
 O   -2.157572   -0.133469    1.054747
 C   -2.966335    0.655207    1.903796
 O   -3.872755    1.337825   -0.854286
 N    3.037559   -0.730304    0.832384
 C    3.870853    0.347349    1.124077
 N    4.528296    0.173835    2.347814
 N    4.082622    1.416236    0.454222
 C    1.296399    2.365214    0.021345
 C    1.700487    3.658365    0.691899
 O    1.399545    2.194665   -1.189057
 N    0.860738    1.388122    0.863483
 H    2.378380   -2.742509   -0.762794
 H    2.289338   -0.018604   -0.952767
 H    0.343334   -0.542860    1.342880
 H   -0.126093    0.342621   -1.526239
 H    0.527930   -5.326741   -2.010937
 H   -1.625561    1.570264    0.036638
 H   -2.444359    0.700395   -2.194098
 H   -2.849523   -1.699100   -1.833813
 H   -3.804075   -1.335074   -0.362236
 H   -5.282032   -1.505618   -2.055109
 H   -3.065096    0.101825    2.841399
 H   -2.488168    1.622853    2.113057
 H   -3.957985    0.834794    1.472446
 H   -4.669164    1.056812   -1.332996
 H    2.838757   -1.313395    1.635016
 H    4.928398   -0.747844    2.473425
 H    5.228771    0.895510    2.459066
 H    3.556205    1.439060   -0.413878
 H    2.781374    3.626787    0.863050
 H    1.480423    4.490744    0.020645
 H    1.193161    3.811307    1.649639
 H    0.964468    1.552801    1.853294
