46 
4hzw_ligand_aiqm1.xyz
 C    0.374346   -2.336762   -1.047525
 C    1.636626   -2.001917   -0.751995
 C    1.981821   -0.651970   -0.184580
 C    0.700932   -0.000414    0.375447
 C   -0.438276   -0.144539   -0.637752
 O   -0.707521   -1.535711   -0.850422
 C   -0.019190   -3.656115   -1.611934
 O   -1.139083   -3.975508   -1.902145
 O    1.052726   -4.466403   -1.758300
 C   -1.732588    0.492551   -0.154062
 C   -2.880940    0.376552   -1.156571
 C   -3.628577   -0.942763   -1.128780
 O   -4.737950   -0.765866   -2.019725
 O   -2.020582   -0.067444    1.108110
 C   -2.911405    0.711392    1.886756
 O   -3.769595    1.442985   -0.844597
 N    3.024943   -0.785004    0.821243
 C    3.817280    0.296719    1.197161
 N    4.360744    0.123349    2.474525
 N    4.071682    1.368220    0.548988
 C    1.302411    2.365082   -0.045805
 C    1.618214    3.668380    0.636351
 O    1.435696    2.181530   -1.247881
 N    0.923581    1.366788    0.795129
 H    2.447547   -2.693712   -0.932149
 H    2.372422   -0.037207   -0.994307
 H    0.392848   -0.548844    1.264892
 H   -0.151700    0.318831   -1.585103
 H    0.715519   -5.291805   -2.126708
 H   -1.541177    1.564892   -0.045028
 H   -2.475722    0.526649   -2.165996
 H   -2.990139   -1.758986   -1.452840
 H   -3.980915   -1.142822   -0.115274
 H   -5.247759   -1.574463   -2.027419
 H   -2.890462    0.295623    2.893721
 H   -2.583417    1.756463    1.915772
 H   -3.926020    0.672390    1.494866
 H   -4.576186    1.284616   -1.342104
 H    2.734181   -1.347421    1.606269
 H    4.691484   -0.814031    2.642333
 H    5.089244    0.804522    2.628517
 H    3.584837    1.406855   -0.339140
 H    2.658028    3.617479    0.961196
 H    1.514527    4.486434   -0.069104
 H    0.990345    3.837790    1.511503
 H    0.857019    1.573817    1.774669
