46 
4i11_ligand_ani-2x.xyz
 O    2.446860   -1.016682   -2.829122
 C    2.338774    0.320175   -2.700698
 O    3.079310    1.083882   -3.273031
 C    1.218622    0.761787   -1.778759
 C    1.766616    1.761335   -0.731272
 C    2.695437    1.137374    0.283132
 C    2.214804    0.707442    1.520635
 C    3.064430    0.118820    2.453844
 C    4.413017   -0.043258    2.156294
 C    4.905578    0.379866    0.924627
 C    4.050777    0.963148   -0.005805
 N    0.526972   -0.355586   -1.178526
 C   -0.744451   -0.188044   -0.686012
 N   -1.304108    0.964775   -0.766253
 C   -2.624893    1.131438   -0.143907
 C   -3.304252    2.306946   -0.848185
 C   -2.457680    1.463999    1.345215
 C   -3.498876   -0.131536   -0.318022
 C   -2.756021   -1.372154    0.108962
 C   -1.370110   -1.396667   -0.079985
 C   -0.629089   -2.514606    0.330666
 C   -1.267100   -3.607080    0.895521
 C   -2.652679   -3.596752    1.053782
 C   -3.388912   -2.484705    0.662087
 H    3.191394   -1.167665   -3.435731
 H    0.512542    1.329025   -2.399478
 H    2.272832    2.563023   -1.280171
 H    0.895509    2.195302   -0.232470
 H    1.159409    0.836974    1.755085
 H    2.674759   -0.208409    3.415152
 H    5.081320   -0.499756    2.882720
 H    5.959116    0.255785    0.688110
 H    4.432471    1.285151   -0.973490
 H    0.797298   -1.283646   -1.466959
 H   -2.709901    3.213273   -0.706298
 H   -3.366687    2.104893   -1.921143
 H   -4.312731    2.474495   -0.452529
 H   -2.043201    0.617244    1.902660
 H   -1.775182    2.312558    1.445130
 H   -3.426483    1.724824    1.785178
 H   -3.783152   -0.213847   -1.376643
 H   -4.424491   -0.011932    0.256365
 H    0.455388   -2.514998    0.233087
 H   -0.686139   -4.472681    1.204453
 H   -3.158196   -4.454656    1.489019
 H   -4.468901   -2.478468    0.792864
