46 
4i11_ligand_xtb.xyz
 O    2.734607   -0.721655   -2.583617
 C    2.370313    0.561993   -2.706938
 O    2.962858    1.331300   -3.414044
 C    1.190378    0.936255   -1.838237
 C    1.706402    1.847338   -0.686736
 C    2.565033    1.055437    0.253046
 C    1.989649    0.372877    1.318524
 C    2.762120   -0.423528    2.145527
 C    4.122634   -0.543790    1.919577
 C    4.706992    0.140890    0.867044
 C    3.932507    0.932636    0.037987
 N    0.501897   -0.225072   -1.350242
 C   -0.704888   -0.103571   -0.731262
 N   -1.325662    1.011041   -0.797802
 C   -2.649915    1.126915   -0.228329
 C   -3.368197    2.244334   -0.989617
 C   -2.525720    1.513282    1.253250
 C   -3.432196   -0.193131   -0.366238
 C   -2.619422   -1.328679    0.174840
 C   -1.236246   -1.294984   -0.034137
 C   -0.437541   -2.305136    0.489610
 C   -1.011447   -3.358645    1.179168
 C   -2.383093   -3.405018    1.361807
 C   -3.181938   -2.387556    0.867791
 H    3.511047   -0.900696   -3.137525
 H    0.481627    1.527016   -2.429457
 H    2.262165    2.674860   -1.127857
 H    0.824215    2.230907   -0.174427
 H    0.928814    0.470167    1.500650
 H    2.300261   -0.951066    2.967670
 H    4.726928   -1.165287    2.563859
 H    5.769588    0.056182    0.691263
 H    4.391109    1.464891   -0.783660
 H    1.074005   -1.023530   -1.131132
 H   -2.807613    3.169714   -0.893048
 H   -3.433857    1.993670   -2.045426
 H   -4.371079    2.390987   -0.596307
 H   -2.047324    0.712770    1.815044
 H   -1.923406    2.413587    1.348975
 H   -3.508433    1.700554    1.679506
 H   -3.628713   -0.370148   -1.429424
 H   -4.391409   -0.124221    0.148920
 H    0.638237   -2.270337    0.385377
 H   -0.385245   -4.142794    1.578851
 H   -2.829337   -4.227738    1.900923
 H   -4.250705   -2.412622    1.026353
