19 
4i47_ligand_aiqm1.xyz
 C   22.001842    7.694964    9.257706
 N   23.093008    4.495560    7.904815
 C   22.784629    5.783249    7.837403
 N   22.399714    6.319582    9.016546
 C   22.461656    5.287838    9.927703
 C   22.199771    5.227336   11.336134
 O   21.833758    6.110832   12.095548
 N   22.425114    3.927601   11.791827
 C   22.860975    2.874558   11.019268
 N   23.104598    1.705850   11.716912
 N   23.094063    2.930346    9.751413
 C   22.896341    4.177769    9.211261
 H   22.808513    8.366248    8.966927
 H   21.110246    7.929239    8.677470
 H   21.792226    7.808692   10.314941
 H   22.829561    6.371856    6.934890
 H   22.351928    3.813011   12.791683
 H   23.294550    0.941331   11.087038
 H   22.409807    1.469738   12.406515
