12 
4i7j_ligand_xtb.xyz
 C    4.061380    8.566297    0.238561
 C    4.544368    9.772968    0.716649
 C    3.745606   10.568524    1.520027
 C    2.463898   10.157810    1.845719
 C    1.981202    8.951560    1.367624
 C    2.780041    8.155605    0.563899
 H    4.685324    7.945848   -0.388347
 H    5.544453   10.092774    0.462074
 H    4.121853   11.510070    1.893389
 H    1.840831   10.778939    2.472822
 H    0.981205    8.630776    1.621448
 H    2.402840    7.214429    0.191134
