15 
4i7k_ligand_aiqm1.xyz
 C    5.329000   11.181271    0.480797
 C    4.115270   10.435489    0.970461
 C    3.685094    9.271567    0.326598
 C    2.564401    8.578813    0.774041
 C    1.850021    9.038024    1.877487
 C    2.267577   10.195403    2.527450
 C    3.390477   10.885095    2.075203
 H    6.213974   10.542314    0.499640
 H    5.192276   11.516518   -0.549205
 H    5.525142   12.056051    1.102006
 H    4.232473    8.902836   -0.533924
 H    2.249889    7.679955    0.259709
 H    0.978825    8.499834    2.225917
 H    1.720824   10.562844    3.386455
 H    3.708858   11.786086    2.588064
