15 
4i7k_ligand_ani-2x.xyz
 C    5.329440   11.181404    0.480698
 C    4.112106   10.434112    0.970977
 C    3.682408    9.270347    0.326655
 C    2.562528    8.577901    0.774164
 C    1.849515    9.037652    1.877554
 C    2.266672   10.194007    2.527260
 C    3.389037   10.884205    2.075186
 H    6.220838   10.544171    0.502870
 H    5.196315   11.520376   -0.553033
 H    5.532828   12.061635    1.097057
 H    4.235388    8.903991   -0.537060
 H    2.245427    7.674108    0.258500
 H    0.974284    8.496841    2.228690
 H    1.717643   10.562641    3.390988
 H    3.709670   11.788710    2.590193
