13 
4i7l_ligand_ani-2x.xyz
 C    4.222672   10.957242    1.082256
 C    3.971074    9.799649    0.344014
 C    2.840178    9.043864    0.619972
 C    1.954152    9.428023    1.625162
 C    2.212710   10.582274    2.355174
 C    3.342809   11.350707    2.090053
 O    5.346482   11.661727    0.769901
 H    4.670425    9.512821   -0.436320
 H    2.647327    8.142651    0.042922
 H    1.071392    8.830671    1.834610
 H    1.530342   10.893909    3.142013
 H    3.539672   12.254282    2.665805
 H    5.407366   12.432080    1.348437
