24 
4i8x_ligand_xtb.xyz
 C   11.920380   12.669818   43.420194
 C   11.619974   13.721609   42.553643
 C   11.981995   13.659110   41.222616
 C   12.656918   12.550475   40.736953
 C   12.973945   11.508279   41.592507
 C   12.609067   11.563661   42.924665
 C   11.511463   12.769809   44.824812
 N   11.325243   14.003573   45.298394
 C   10.968724   14.165921   46.549899
 C   10.751233   13.109375   47.439615
 C   10.930927   11.816696   46.947813
 C   11.311707   11.644319   45.631911
 C   10.360993   13.427945   48.839444
 O   10.592852   14.485847   49.355404
 O    9.710212   12.461167   49.515819
 H   11.097562   14.578782   42.948209
 H   11.739714   14.476687   40.559951
 H   12.941118   12.500594   39.696317
 H   13.512031   10.648909   41.220013
 H   12.887108   10.753885   43.582623
 H   10.836254   15.184678   46.888545
 H   10.808229   10.946229   47.581711
 H   11.441111   10.651025   45.232723
 H    9.544138   11.676008   48.978019
