15 
4idz_ligand_xtb.xyz
 C   30.083827   -7.778683  -23.632630
 C   31.414370   -7.242807  -23.074399
 C   32.661552   -6.812397  -21.006297
 C   33.980372   -7.593115  -21.241633
 O   29.240100   -8.249799  -22.922463
 O   30.017192   -7.644789  -24.940633
 O   32.241657   -6.773626  -23.857014
 O   34.562369   -8.123225  -20.342993
 N   31.542673   -7.342215  -21.758476
 O   34.412496   -7.595234  -22.488558
 H   32.838127   -5.773307  -21.310818
 H   32.426193   -6.845914  -19.943812
 H   30.848571   -7.229501  -25.258698
 H   30.782837   -7.797007  -21.266682
 H   33.800562   -7.145281  -23.120294
