17 
4ie0_ligand_xtb.xyz
 O   35.047201   -8.248031  -22.050105
 C   34.299126   -7.577111  -21.402288
 O   34.500565   -7.363248  -20.093171
 C   33.083353   -6.923457  -21.996565
 C   32.590717   -5.701034  -21.544339
 C   31.483892   -5.155744  -22.181698
 C   32.447409   -7.542200  -23.069448
 C   31.335431   -6.918644  -23.618228
 N   30.867110   -5.750701  -23.183299
 C   30.568769   -7.528499  -24.764744
 O   29.555844   -6.771350  -25.174617
 O   30.847161   -8.589236  -25.247337
 H   33.798829   -6.845439  -19.676417
 H   33.065914   -5.155716  -20.741253
 H   31.072920   -4.203688  -21.874381
 H   32.802921   -8.480052  -23.465624
 H   29.524538   -5.961350  -24.627487
