50 
4ie3_ligand_ani-2x.xyz
 O   35.341871   88.686769   72.008430
 C   34.173256   88.652261   71.332797
 O   33.626961   89.671051   70.967157
 C   33.633866   87.241080   71.072146
 N   32.205150   87.325667   70.751276
 C   34.343170   86.668130   69.817919
 C   35.800483   86.235821   69.963020
 C   36.459501   85.926684   68.606339
 C   36.683239   87.146265   67.714745
 B   37.618048   86.784136   66.366949
 O   37.917986   88.015573   65.592522
 O   36.875287   85.847941   65.456744
 O   38.891461   86.161796   66.820563
 C   33.830740   86.325965   72.292247
 C   33.064808   86.791055   73.529174
 N   33.240099   85.898955   74.670273
 C   32.157363   86.037177   75.632915
 C   32.264678   84.980798   76.726288
 C   33.609590   85.089520   77.442837
 O   33.814466   84.025883   78.360891
 C   34.733711   85.036635   76.420460
 C   34.526995   86.082965   75.330003
 H   35.626854   89.615801   71.979511
 H   31.751698   87.952039   71.415498
 H   32.125444   87.808522   69.857963
 H   34.270057   87.423037   69.023482
 H   33.733930   85.816942   69.486636
 H   35.847800   85.344532   70.608440
 H   36.373075   87.020704   70.470310
 H   35.855010   85.188243   68.054936
 H   37.444369   85.470429   68.776261
 H   37.192708   87.921386   68.292962
 H   35.724530   87.559993   67.389324
 H   37.287505   88.027045   64.875588
 H   37.058344   84.966788   65.775383
 H   39.580815   86.582042   66.310156
 H   33.475998   85.324904   72.021527
 H   34.900825   86.253338   72.511698
 H   33.338816   87.831193   73.787673
 H   31.996139   86.802159   73.285312
 H   32.148102   87.047245   76.099378
 H   31.206889   85.923429   75.098995
 H   31.437539   85.094659   77.441829
 H   32.181616   83.981640   76.280767
 H   33.652169   86.060390   77.970478
 H   33.090866   84.049063   78.999942
 H   34.753018   84.034777   75.974516
 H   35.696753   85.190166   76.921802
 H   35.323180   86.003168   74.583272
 H   34.608220   87.099240   75.774665
