21 
4ie4_ligand_xtb.xyz
 O   34.651601   -7.348137  -20.823041
 O   34.521893   -9.412465  -21.598891
 O   30.174180   -6.738759  -25.367640
 C   31.110661   -5.060786  -20.872130
 C   30.187676   -4.824204  -21.902988
 C   32.056863   -8.050577  -24.754086
 C   33.015614   -8.378897  -23.795783
 C   32.079205   -6.014519  -21.045860
 N   30.200136   -5.473561  -23.034691
 C   34.138383   -8.119067  -21.588572
 C   31.117495   -7.081541  -24.482447
 C   33.076231   -7.755522  -22.563987
 C   32.134013   -6.733458  -22.259915
 C   31.148750   -6.412604  -23.225482
 H   34.005601   -9.947389  -22.216101
 H   29.641859   -6.035875  -24.950504
 H   31.048377   -4.493686  -19.956756
 H   29.410950   -4.078404  -21.793635
 H   32.045873   -8.546547  -25.710985
 H   33.755520   -9.121560  -24.065087
 H   32.808018   -6.214244  -20.276817
