21 
4ie4_ligand_dft.xyz
 O   -2.823624    1.296929    0.564423
 O   -3.515728   -0.508871   -0.506851
 O    2.625769   -2.067820    0.043644
 C    1.166284    2.589571   -0.100928
 C    2.381931    1.872922   -0.107523
 C    0.272148   -2.333299    0.108843
 C   -0.994127   -1.722492    0.099019
 C   -0.022654    1.907121   -0.045951
 N    2.437389    0.561612   -0.062998
 C   -2.541370    0.235424    0.066565
 C    1.397106   -1.545764    0.047138
 C   -1.168518   -0.352208    0.037909
 C   -0.009579    0.488328    0.002453
 C    1.265935   -0.120607   -0.008184
 H   -3.121408   -1.230053   -1.014761
 H    3.232951   -1.301424    0.000901
 H    1.181971    3.673579   -0.135819
 H    3.331877    2.400791   -0.149894
 H    0.370640   -3.410856    0.171359
 H   -1.862586   -2.371075    0.185605
 H   -0.969432    2.431871   -0.022193
