22 
4ie5_ligand_xtb.xyz
 C   33.792130   -7.593995  -21.416805
 N   31.681199   -6.918144  -22.514813
 O   33.766126   -8.612795  -22.273682
 C   32.780014   -6.474874  -21.694838
 N   29.334504   -6.500487  -24.922987
 O   34.552165   -7.553817  -20.493999
 C   31.488258   -6.453030  -23.779097
 O   32.188282   -5.614487  -24.292123
 C   30.383714   -7.177557  -24.499511
 O   31.655969   -9.178149  -24.264646
 C   28.403108   -7.128750  -25.617239
 C   28.479709   -8.475472  -25.938919
 C   29.576020   -9.199252  -25.500248
 C   30.550449   -8.548038  -24.756149
 H   31.012951   -7.553984  -22.108286
 H   33.094324   -8.502688  -22.973358
 H   33.295454   -5.683552  -22.251673
 H   32.440672   -6.063023  -20.741068
 H   31.687318  -10.092201  -24.575829
 H   27.566259   -6.520528  -25.928591
 H   27.704986   -8.951355  -26.518678
 H   29.678989  -10.252024  -25.729360
