29 
4ie7_ligand_ani-2x.xyz
 O   31.275784   -5.049698  -34.614393
 O   27.249277   -4.588705  -31.644152
 O   29.624779   -7.849746  -28.026322
 O   33.212945   -5.252127  -33.559426
 O   27.485781   -7.825098  -26.578224
 O   31.774093   -7.897931  -29.459506
 C   25.064724   -5.739148  -28.274021
 C   25.659289   -6.575930  -27.333708
 C   25.758825   -5.336738  -29.402144
 C   31.808578   -6.642270  -31.428746
 C   29.877253   -5.386187  -32.145524
 C   31.866773   -5.333894  -33.606842
 C   31.183934   -5.790425  -32.347370
 C   26.965404   -7.025218  -27.509887
 C   31.133403   -7.081446  -30.297323
 C   27.784540   -5.317339  -30.829360
 C   29.077244   -7.091357  -28.860944
 C   27.064465   -5.772690  -29.598476
 C   29.189088   -5.796293  -31.012008
 C   27.694725   -6.623339  -28.660956
 C   29.799155   -6.648435  -30.063129
 H   33.521708   -5.378809  -32.652029
 H   28.398333   -8.039985  -26.865767
 H   31.155805   -8.090043  -28.723435
 H   24.044042   -5.402027  -28.114262
 H   25.123422   -6.896928  -26.446131
 H   25.315078   -4.685984  -30.146711
 H   32.812402   -7.027838  -31.587325
 H   29.381150   -4.750875  -32.869677
