58 
4ifh_ligand_aiqm1.xyz
 C   -1.746919   -0.450887    2.103658
 C   -0.971037    0.712869    2.348156
 C   -1.567206    1.941883    2.731160
 C   -0.793495    3.047557    2.969547
 C    0.616411    2.982970    2.822871
 C    1.216760    1.810034    2.439595
 C    0.441317    0.646474    2.207879
 C    1.031807   -0.591641    1.844449
 C    0.258266   -1.700917    1.628188
 C   -1.158586   -1.642527    1.748759
 C   -1.984411   -2.859743    1.432865
 C   -2.454082   -2.872252   -0.030035
 C   -3.166144   -4.175858   -0.399057
 C   -3.513495   -4.193253   -1.866530
 N   -2.770567   -5.033968   -2.621582
 O   -2.952430   -4.906548   -3.995203
 O   -4.408082   -3.518718   -2.363405
 N   -1.317561   -2.681547   -0.910920
 C   -0.953425   -1.578554   -1.581592
 N   -0.394603   -3.640862   -1.045258
 N    0.574418   -3.165708   -1.796533
 C    0.262443   -1.892287   -2.146848
 C    1.180170   -1.050696   -2.975564
 N    1.793655    0.031386   -2.215967
 C    1.104558    1.187982   -2.003458
 O    0.011453    1.392622   -2.510670
 C    1.771494    2.214518   -1.144395
 C    1.015561    3.326926   -0.773914
 C    1.573934    4.340479   -0.009830
 C    2.905720    4.271663    0.416281
 C    3.515156    5.383464    1.227497
 C    3.655633    3.151786    0.046746
 C    3.102076    2.135550   -0.728455
 H   -2.827801   -0.386255    2.200741
 H   -2.645299    1.992468    2.837222
 H   -1.255327    3.978271    3.271111
 H    1.211975    3.868937    3.011920
 H    2.292660    1.752981    2.305833
 H    2.110183   -0.652575    1.743357
 H    0.715343   -2.638942    1.337428
 H   -2.867469   -2.895177    2.072768
 H   -1.399625   -3.765036    1.608769
 H   -3.116575   -2.024151   -0.221351
 H   -2.524189   -5.022306   -0.157052
 H   -4.090897   -4.249838    0.169709
 H   -1.799926   -5.188514   -2.377327
 H   -3.641070   -4.215183   -4.035988
 H   -1.557476   -0.687876   -1.608934
 H    1.963723   -1.687377   -3.380006
 H    0.639888   -0.590090   -3.799086
 H    2.525631   -0.211182   -1.572153
 H   -0.011387    3.382367   -1.106177
 H    0.970649    5.198758    0.264261
 H    3.539075    6.309777    0.652478
 H    2.930446    5.582092    2.127723
 H    4.533930    5.138721    1.528669
 H    4.692409    3.081186    0.356273
 H    3.732640    1.306947   -1.030326
