17 
4ih3_ligand_xtb.xyz
 N   -0.459264  -12.816720    8.644623
 C   -1.654631  -12.256073    8.536865
 C   -2.841797  -12.944713    8.767207
 C   -2.757287  -14.283141    9.112808
 C   -1.506081  -14.871156    9.234983
 C   -0.373850  -14.091203    8.996475
 C   -1.642329  -10.801452    8.136730
 O   -0.424426  -10.330524    7.911114
 O   -2.644502  -10.148922    8.038216
 C    1.028167  -14.636887    9.062521
 O    1.230723  -15.618751    9.956764
 O    1.909671  -14.234797    8.363636
 H   -3.782762  -12.429268    8.662778
 H   -3.650481  -14.865091    9.284158
 H   -1.422283  -15.921355    9.476101
 H    0.231260  -11.044633    8.048287
 H    0.454374  -15.813212   10.498336
