17 
4ih3_ligand_ani-2x.xyz
 N   -0.443247  -12.830132    8.627548
 C   -1.642556  -12.262369    8.533150
 C   -2.833176  -12.941107    8.757525
 C   -2.757182  -14.285927    9.100877
 C   -1.506122  -14.885360    9.220785
 C   -0.373535  -14.111992    8.978609
 C   -1.642714  -10.800365    8.144189
 O   -0.426825  -10.287411    7.945176
 O   -2.655526  -10.159778    8.024934
 C    1.021402  -14.696260    9.023219
 O    1.223027  -15.605710   10.002724
 O    1.890516  -14.411613    8.250298
 H   -3.774260  -12.409709    8.655080
 H   -3.661304  -14.859709    9.284889
 H   -1.415586  -15.941138    9.465104
 H    0.217936  -11.004639    8.102604
 H    0.473652  -15.614680   10.614888
