80 
4imz_ligand_ani-2x.xyz
 C   -3.252625   -0.058168    0.671303
 O   -2.806465   -0.260416    1.793724
 O   -3.914005    1.056537    0.307461
 C   -4.091022    2.050398    1.339412
 C   -2.944103    3.027690    1.360638
 C   -2.999102    4.194986    0.594769
 C   -1.940467    5.098224    0.601064
 C   -0.810971    4.835564    1.372027
 C   -0.740138    3.663659    2.121752
 C   -1.798508    2.761510    2.111125
 N   -3.186766   -0.935416   -0.367102
 C   -2.379765   -2.135873   -0.206491
 C   -0.900833   -1.740980   -0.346879
 O   -0.333261   -1.745105   -1.441211
 C   -2.790407   -3.206798   -1.213801
 C   -2.006472   -4.523392   -1.122833
 C   -2.138426   -5.197288    0.244253
 C   -2.463983   -5.469976   -2.233691
 N   -0.320007   -1.342028    0.805071
 C    0.997596   -0.713164    0.894914
 C    0.963815    0.743726    0.396534
 O    1.336670    1.655844    1.120981
 C    2.117666   -1.530974    0.225979
 C    2.156000   -2.967472    0.693332
 C    2.617939   -3.302004    1.967241
 C    1.700433   -3.987117   -0.143804
 C    2.634820   -4.626888    2.391715
 C    1.710966   -5.313521    0.277377
 C    2.182918   -5.635842    1.546753
 C   -1.385766    2.143758   -1.795696
 C    2.604583    3.995170   -0.814601
 C    2.396182    2.976206   -1.927692
 N    0.512323    0.947376   -0.871331
 O    1.693225    4.728899   -0.449068
 N    3.860284    4.073723   -0.274934
 C    4.930207    3.164587   -0.640342
 C    4.096235    4.976048    0.839771
 C    0.039043    2.244238   -1.293408
 C    0.940092    2.866879   -2.365510
 O   -1.953216    1.099135   -2.006437
 H   -5.023571    2.551499    1.069355
 H   -4.205782    1.544975    2.302634
 H   -3.881411    4.395258   -0.010400
 H   -1.996358    6.006659    0.005469
 H    0.028442    5.523098    1.353516
 H    0.158646    3.434703    2.686645
 H   -1.745112    1.835849    2.680189
 H   -3.189927   -0.496325   -1.280818
 H   -2.558170   -2.483686    0.818082
 H   -2.666282   -2.789802   -2.222068
 H   -3.861654   -3.402628   -1.071889
 H   -0.945939   -4.286759   -1.290188
 H   -1.730098   -4.581982    1.053663
 H   -3.191887   -5.405631    0.473208
 H   -1.602170   -6.153538    0.255738
 H   -3.524234   -5.726211   -2.110124
 H   -2.342710   -5.012640   -3.222206
 H   -1.890502   -6.403555   -2.221164
 H   -0.969979   -1.097330    1.548098
 H    1.215739   -0.632913    1.962263
 H    1.986702   -1.510429   -0.856917
 H    3.067171   -1.030274    0.456382
 H    2.971799   -2.515956    2.633060
 H    1.321889   -3.723170   -1.128059
 H    3.002084   -4.872694    3.385113
 H    1.355456   -6.101543   -0.385019
 H    2.197059   -6.670436    1.879313
 H   -1.903891    3.110980   -1.990247
 H    2.766433    1.998704   -1.600342
 H    3.003873    3.281212   -2.789831
 H    0.196741    0.147286   -1.410600
 H    5.879504    3.584468   -0.297319
 H    4.815616    2.167364   -0.189300
 H    4.995460    3.044670   -1.726003
 H    4.297411    4.423072    1.766844
 H    3.203164    5.586529    0.973746
 H    4.955861    5.625814    0.633661
 H    0.039249    2.899577   -0.417541
 H    0.556231    3.864247   -2.602370
 H    0.880656    2.259501   -3.277239
