80 
4imz_ligand_xtb.xyz
 C   -3.042001   -0.112432    0.984668
 O   -2.492306   -0.361480    2.039627
 O   -3.743172    1.001360    0.729840
 C   -3.726741    2.021861    1.735057
 C   -2.634820    3.018491    1.446983
 C   -2.860739    4.063084    0.559157
 C   -1.849707    4.960400    0.265052
 C   -0.603019    4.821309    0.852720
 C   -0.368662    3.775215    1.730746
 C   -1.379803    2.875126    2.023218
 N   -3.078344   -0.952516   -0.072477
 C   -2.293475   -2.177933   -0.081712
 C   -0.834013   -1.775428   -0.337888
 O   -0.350570   -1.745872   -1.458662
 C   -2.822582   -3.123442   -1.153411
 C   -2.103835   -4.477419   -1.186086
 C   -2.231497   -5.232414    0.135032
 C   -2.672397   -5.318519   -2.327780
 N   -0.197952   -1.397168    0.782757
 C    1.139479   -0.829625    0.864855
 C    1.167581    0.631435    0.390738
 O    1.679976    1.509458    1.061061
 C    2.180024   -1.669313    0.100407
 C    2.103812   -3.111108    0.521900
 C    2.473734   -3.494843    1.805229
 C    1.630609   -4.075726   -0.356407
 C    2.362446   -4.814247    2.204362
 C    1.517077   -5.396393    0.041623
 C    1.878711   -5.768060    1.324500
 C   -1.130760    2.159591   -1.818458
 C    2.559649    4.205598   -1.103989
 C    2.632222    2.879279   -1.853709
 N    0.611235    0.830129   -0.811819
 O    1.768478    5.074435   -1.435517
 N    3.432739    4.381139   -0.091752
 C    4.313776    3.348983    0.407929
 C    3.378040    5.602850    0.679102
 C    0.295825    2.135191   -1.341046
 C    1.267126    2.558161   -2.457555
 O   -1.890056    1.231404   -1.763465
 H   -4.711938    2.491300    1.686121
 H   -3.578698    1.552912    2.712999
 H   -3.833355    4.169100    0.100849
 H   -2.030620    5.771269   -0.424774
 H    0.184666    5.515993    0.606712
 H    0.604964    3.644017    2.177334
 H   -1.194293    2.053252    2.699018
 H   -3.320515   -0.544386   -0.963964
 H   -2.385566   -2.619054    0.914943
 H   -2.691324   -2.637632   -2.122694
 H   -3.890273   -3.277977   -0.984692
 H   -1.043731   -4.296561   -1.381801
 H   -1.668620   -4.743970    0.926358
 H   -3.274754   -5.303168    0.435987
 H   -1.838986   -6.240710    0.026070
 H   -3.726653   -5.527144   -2.157280
 H   -2.573675   -4.795794   -3.275976
 H   -2.144168   -6.265941   -2.403274
 H   -0.780262   -1.269163    1.604420
 H    1.406765   -0.820842    1.926189
 H    1.998654   -1.591696   -0.970964
 H    3.167469   -1.257428    0.322767
 H    2.856860   -2.756174    2.495149
 H    1.348059   -3.785777   -1.357726
 H    2.653728   -5.099913    3.204687
 H    1.145226   -6.136380   -0.651811
 H    1.788129   -6.797649    1.637817
 H   -1.431760    3.133292   -2.243172
 H    2.935694    2.072203   -1.192349
 H    3.377492    2.983331   -2.646191
 H    0.233390    0.035089   -1.321545
 H    4.976863    3.790485    1.148706
 H    3.741776    2.548955    0.885668
 H    4.925832    2.933800   -0.393721
 H    3.023048    5.402757    1.692843
 H    2.690657    6.285401    0.183318
 H    4.367290    6.061761    0.728387
 H    0.377974    2.866608   -0.524166
 H    0.880452    3.452804   -2.947037
 H    1.348321    1.752171   -3.188332
