15 
4ipj_ligand_dft.xyz
 C    1.254218   -0.654837   -0.113832
 O    0.669528   -1.554713   -0.660826
 O    2.547293   -0.735543    0.259262
 C    0.672860    0.705533    0.262230
 O    1.534425    1.749354   -0.133441
 C   -0.669107    0.919959   -0.414626
 C   -1.739845    0.041243    0.183049
 O   -2.781055   -0.112720   -0.650428
 O   -1.708674   -0.443117    1.289490
 H    2.865077   -1.613561   -0.005317
 H    0.523238    0.694902    1.352203
 H    2.399772    1.579884    0.260191
 H   -0.600464    0.745276   -1.490528
 H   -0.964088    1.964988   -0.267610
 H   -3.424431   -0.668965   -0.182316
