46 
4ir5_ligand_xtb.xyz
 C   25.024016   10.915046    0.854301
 C   25.497272    9.485901    1.012966
 O   24.710723    8.576411    1.232287
 C   26.921258    9.294668    0.885730
 C   27.924036   10.236270    0.628434
 C   29.153318    9.592998    0.571850
 C   30.461464   10.213248    0.332328
 C   30.923285   11.175235    1.225080
 C   32.152811   11.780279    1.043585
 C   32.937030   11.427893   -0.040924
 C   32.480905   10.484261   -0.943757
 C   31.246313    9.875768   -0.774121
 C   30.749985    8.888816   -1.800748
 O   31.369810    9.134021   -3.044484
 C   28.905883    8.232523    0.823316
 C   29.762776    7.131691    0.948836
 C   29.229180    5.897078    1.229411
 O   29.944584    4.744255    1.322478
 C   31.284276    4.766821    1.636402
 C   32.099050    3.840388    0.995414
 C   33.440936    3.765351    1.318225
 C   33.976930    4.610601    2.275362
 C   33.160280    5.523276    2.921055
 C   31.814970    5.604322    2.610797
 C   27.822699    5.765172    1.370295
 C   27.014466    6.850947    1.261297
 N   27.544375    8.070431    1.005426
 H   25.291999   11.290968   -0.130158
 H   23.944222   10.947197    0.971643
 H   25.488665   11.548575    1.605947
 H   27.771349   11.287028    0.478345
 H   30.305716   11.440148    2.071433
 H   32.497184   12.524189    1.746977
 H   33.900400   11.892828   -0.189090
 H   33.071606   10.221222   -1.806838
 H   29.656652    8.978129   -1.886829
 H   30.974000    7.862308   -1.465857
 H   31.011897    8.522018   -3.694742
 H   30.823742    7.283209    0.828658
 H   31.664003    3.187923    0.254416
 H   34.070348    3.045548    0.816957
 H   35.026056    4.554316    2.522111
 H   33.568993    6.176216    3.677567
 H   31.175442    6.303830    3.128871
 H   27.413108    4.790397    1.572814
 H   25.942488    6.808778    1.375635
