46 
4ir5_ligand_aiqm1.xyz
 C   24.988112   10.877830    0.605812
 C   25.492996    9.481480    0.881257
 O   24.726082    8.561187    1.134420
 C   26.924445    9.284441    0.829667
 C   27.944246   10.195945    0.556549
 C   29.179667    9.544087    0.608453
 C   30.521143   10.119632    0.358208
 C   31.110394   10.958987    1.305385
 C   32.372785   11.505627    1.090145
 C   33.060170   11.214661   -0.083511
 C   32.482228   10.382802   -1.040358
 C   31.218530    9.833466   -0.829950
 C   30.580122    8.938374   -1.859280
 O   31.360129    8.948281   -3.042788
 C   28.909402    8.204031    0.926691
 C   29.751164    7.084057    1.131132
 C   29.185723    5.882105    1.457863
 O   29.883815    4.726532    1.656620
 C   31.256441    4.828810    1.819118
 C   32.082759    4.288499    0.840763
 C   33.463078    4.326021    1.020523
 C   34.007585    4.910821    2.160643
 C   33.167250    5.452432    3.130326
 C   31.785503    5.414906    2.965815
 C   27.774735    5.764286    1.582442
 C   26.973313    6.846611    1.382410
 N   27.540801    8.058101    1.061054
 H   25.298141   11.205916   -0.386768
 H   23.902210   10.877816    0.672048
 H   25.402247   11.581463    1.328657
 H   27.788870   11.240961    0.333080
 H   30.569143   11.186076    2.215716
 H   32.812708   12.154658    1.836368
 H   34.042267   11.637534   -0.256683
 H   32.997485   10.156168   -1.963688
 H   29.561733    9.286521   -2.058794
 H   30.498230    7.920337   -1.463828
 H   30.940203    8.371082   -3.680548
 H   30.820839    7.193344    1.031568
 H   31.635093    3.845275   -0.038392
 H   34.109479    3.907174    0.261892
 H   35.079636    4.948965    2.291513
 H   33.588257    5.911969    4.014010
 H   31.112958    5.841154    3.699422
 H   27.347660    4.804852    1.834121
 H   25.900721    6.843223    1.459597
