24 
4irx_ligand_aiqm1.xyz
 C    0.906196   30.448015   66.583008
 C    1.363324   31.379516   65.463444
 C    1.964224   32.641955   66.070809
 C    3.101758   32.284111   67.007558
 C    2.631469   31.375304   68.130277
 C    2.035985   30.108779   67.551848
 O    0.478390   29.204156   66.027139
 O    2.334198   30.738771   64.658164
 O    2.504531   33.533817   65.115687
 O    3.637951   33.440788   67.631467
 O    3.716179   31.020844   68.958982
 O    1.528121   29.321663   68.607904
 H    0.090180   30.917929   67.136667
 H    0.488648   31.649701   64.851848
 H    1.163976   33.135938   66.638482
 H    3.869697   31.764312   66.427853
 H    1.856747   31.905338   68.703884
 H    2.815996   29.580257   66.993366
 H   -0.450615   29.267046   65.807364
 H    2.003212   29.848148   64.498870
 H    1.809047   33.803679   64.513267
 H    3.925492   34.036180   66.935667
 H    4.153737   31.841337   69.205517
 H    1.232557   28.490817   68.226427
