24 
4irx_ligand_ani-2x.xyz
 C    0.905643   30.436430   66.584725
 C    1.357992   31.383523   65.472770
 C    1.945746   32.650719   66.087926
 C    3.099622   32.302131   67.018270
 C    2.674082   31.357580   68.136325
 C    2.026719   30.106173   67.571794
 O    0.503452   29.182230   66.028431
 O    2.346166   30.751742   64.688191
 O    2.479930   33.541850   65.125801
 O    3.615945   33.462559   67.640721
 O    3.798679   30.987216   68.898834
 O    1.493806   29.340938   68.629179
 H    0.078264   30.891783   67.150795
 H    0.490423   31.656511   64.844113
 H    1.163673   33.153723   66.682345
 H    3.875558   31.798632   66.418704
 H    1.924112   31.872717   68.765537
 H    2.809903   29.550210   67.029877
 H   -0.392465   29.272895   65.681322
 H    2.020352   29.850919   64.539611
 H    1.809637   33.717053   64.453633
 H    3.840600   34.074440   66.925966
 H    4.221668   31.816104   69.164794
 H    1.071492   28.580321   68.205836
