24 
4irx_ligand_dft.xyz
 C   -1.302520   -0.635503   -0.516742
 C   -0.122207   -1.554938   -0.181436
 C    1.190444   -0.852341   -0.527309
 C    1.281834    0.491215    0.181265
 C    0.116333    1.408248   -0.179042
 C   -1.207541    0.737588    0.154922
 O   -2.514381   -1.216995   -0.034950
 O   -0.138419   -1.888055    1.184862
 O    2.339148   -1.576836   -0.137933
 O    2.460447    1.181665   -0.187437
 O    0.215243    2.611979    0.540086
 O   -2.263890    1.553548   -0.291058
 H   -1.360095   -0.475126   -1.602544
 H   -0.207381   -2.472097   -0.797303
 H    1.202079   -0.669553   -1.615497
 H    1.264246    0.309092    1.264616
 H    0.144814    1.602700   -1.265275
 H   -1.252147    0.596705    1.245226
 H   -2.805338   -1.888087   -0.663600
 H   -1.072870   -2.013879    1.408788
 H    2.308776   -2.453519   -0.537767
 H    3.198725    0.593303    0.018210
 H    1.132253    2.901613    0.434394
 H   -3.076306    1.080780   -0.067763
