65 
4ish_ligand_ani-2x.xyz
 C   -2.540840    4.018728    0.912346
 C   -1.267126    4.400825    1.343690
 C   -0.281813    3.453834    1.550490
 C   -0.540825    2.094456    1.324245
 C   -1.802737    1.695287    0.864758
 C   -2.781811    2.669204    0.676463
 C   -3.630603    5.004196    0.663723
 N   -4.555439    4.698483   -0.163224
 N   -3.507805    6.206285    1.354637
 N    0.433060    1.137150    1.609824
 C    0.378243   -0.131221    0.886919
 C   -1.019575   -0.746236    1.119142
 C   -2.088516    0.236899    0.576066
 C   -1.248665   -2.024427    0.279938
 C   -1.747390   -1.486716   -1.047711
 C   -2.207672   -0.178498   -0.890585
 C   -1.763134   -2.093282   -2.296346
 C   -2.237578   -1.374046   -3.393277
 C   -2.679638   -0.060895   -3.235370
 C   -2.665211    0.547317   -1.983440
 C    1.524112   -1.034087    1.334908
 C    2.277586   -1.820296    0.440950
 C    3.155569   -2.788502    0.941702
 C    3.373868   -2.926356    2.298001
 C    2.676581   -2.091815    3.188639
 C    1.760401   -1.170877    2.706629
 C    2.187980   -1.673572   -1.041364
 C    1.839286   -2.772268   -1.830156
 C    1.749692   -2.648892   -3.208021
 C    2.029218   -1.425787   -3.822207
 C    2.404903   -0.328727   -3.044688
 C    2.481821   -0.457485   -1.664752
 C    1.909991   -1.349460   -5.298727
 O    2.210538   -0.132338   -5.801471
 O    1.577805   -2.268852   -6.014030
 O    2.987297   -2.299418    4.504452
 C    2.331634   -1.489286    5.458757
 O    4.248045   -3.847953    2.770157
 H   -1.039285    5.451898    1.498815
 H    0.701760    3.760459    1.904826
 H   -3.770766    2.394216    0.317646
 H   -5.232464    5.457654   -0.256127
 H   -3.086102    6.145175    2.272250
 H   -4.334748    6.788240    1.345682
 H    1.361405    1.539294    1.629113
 H    0.460690    0.041463   -0.198389
 H   -1.151641   -0.907377    2.195358
 H   -3.047889   -0.017081    1.057132
 H   -2.008447   -2.657675    0.755973
 H   -0.344304   -2.634707    0.175101
 H   -1.407870   -3.114438   -2.428764
 H   -2.260270   -1.837432   -4.376967
 H   -3.040781    0.494681   -4.096917
 H   -2.996701    1.576269   -1.866834
 H    3.695434   -3.429009    0.249606
 H    1.189981   -0.546409    3.388297
 H    1.626085   -3.732573   -1.361108
 H    1.472687   -3.491610   -3.833166
 H    2.623621    0.620001   -3.522260
 H    2.764198    0.397930   -1.053236
 H    2.093614   -0.216869   -6.762104
 H    1.247520   -1.655731    5.440843
 H    2.725571   -1.779954    6.433398
 H    2.539718   -0.426384    5.284408
 H    4.247733   -3.761603    3.736457
