65 
4ish_ligand_xtb.xyz
 C   -2.535378    3.970269    0.963053
 C   -1.286991    4.350142    1.449931
 C   -0.294439    3.410794    1.629734
 C   -0.515262    2.065959    1.328078
 C   -1.769496    1.674576    0.839877
 C   -2.754701    2.626979    0.667896
 C   -3.624052    4.934149    0.732991
 N   -4.513321    4.650824   -0.127428
 N   -3.564067    6.109672    1.447472
 N    0.460518    1.126103    1.562123
 C    0.393965   -0.135368    0.848297
 C   -0.999605   -0.749403    1.080087
 C   -2.041259    0.234617    0.515388
 C   -1.177639   -2.001349    0.209328
 C   -1.538218   -1.410807   -1.123659
 C   -2.014051   -0.110290   -0.958093
 C   -1.436306   -1.965761   -2.380863
 C   -1.788387   -1.194217   -3.480659
 C   -2.242418    0.102394   -3.315208
 C   -2.368590    0.656324   -2.046867
 C    1.503161   -1.039414    1.318900
 C    2.305242   -1.763620    0.437484
 C    3.269944   -2.629299    0.950379
 C    3.464221   -2.761849    2.311159
 C    2.662457   -2.021770    3.197926
 C    1.691786   -1.180539    2.692041
 C    2.148441   -1.681410   -1.027796
 C    1.884753   -2.840072   -1.755461
 C    1.681656   -2.781420   -3.117975
 C    1.741178   -1.558545   -3.782758
 C    2.051992   -0.403162   -3.070268
 C    2.261091   -0.469648   -1.708271
 C    1.461711   -1.527403   -5.231363
 O    1.568912   -0.302063   -5.772224
 O    1.158225   -2.489188   -5.894490
 O    2.936974   -2.224831    4.530468
 C    2.165744   -1.529321    5.477912
 O    4.420526   -3.600553    2.783607
 H   -1.070959    5.387899    1.658872
 H    0.675896    3.712414    2.000544
 H   -3.727585    2.343349    0.297965
 H   -5.234667    5.360680   -0.234706
 H   -3.028553    6.138782    2.297841
 H   -4.372669    6.710415    1.418534
 H    1.393275    1.493051    1.687624
 H    0.482383    0.027918   -0.235843
 H   -1.142614   -0.944796    2.144223
 H   -3.035833   -0.027493    0.900431
 H   -2.003441   -2.611412    0.586639
 H   -0.283540   -2.622353    0.174755
 H   -1.080724   -2.976502   -2.512323
 H   -1.698852   -1.612436   -4.472482
 H   -2.504446    0.692809   -4.180797
 H   -2.725382    1.667383   -1.919569
 H    3.898507   -3.198426    0.284097
 H    1.058570   -0.608099    3.350925
 H    1.820151   -3.785640   -1.236948
 H    1.463164   -3.670622   -3.689921
 H    2.122345    0.539473   -3.589499
 H    2.527701    0.424586   -1.163407
 H    1.363283   -0.346807   -6.718803
 H    1.106554   -1.793066    5.401356
 H    2.545484   -1.837255    6.450841
 H    2.280473   -0.446493    5.369403
 H    4.403162   -3.559058    3.749600
