25 
4iuo_ligand_aiqm1.xyz
 C    0.936261    0.334535    0.438893
 O    1.456162    1.048450   -0.669758
 C   -0.328296    1.066752    0.884302
 O   -1.102022    1.743948   -1.348517
 C   -1.415779    0.996315   -0.179092
 O   -2.661696   -0.513163   -1.603627
 C   -1.691156   -0.453421   -0.573227
 O   -0.705981   -2.518584   -1.344640
 C   -0.426211   -1.164199   -1.032544
 O    1.653078    0.074681    2.732897
 C    0.630573   -1.123629    0.057353
 O    3.207449    0.430809    1.158352
 C    1.939141    0.282794    1.585824
 H    2.369655    0.789229   -0.821105
 H   -0.685721    0.600242    1.801753
 H   -0.097969    2.110698    1.101880
 H   -0.145324    1.712158   -1.463923
 H   -2.336365    1.425569    0.212651
 H   -2.494822    0.251387   -2.166456
 H   -2.103988   -0.987904    0.285410
 H   -1.523396   -2.510233   -1.852790
 H   -0.048507   -0.648553   -1.923306
 H    1.539498   -1.622647   -0.288141
 H    0.261885   -1.663518    0.933928
 H    3.773532    0.338384    1.933682
