50 
4ixh_ligand_xtb.xyz
 O   -1.287012   -3.794708    0.643683
 C   -1.313574   -2.937095   -0.210900
 C   -2.367737   -2.950511   -1.331825
 C   -1.838238   -3.811059   -2.478707
 O   -2.623248   -1.662741   -1.856682
 C   -3.314377   -0.761148   -1.089107
 C   -3.652579   -0.952897    0.226594
 C   -4.354098    0.041240    0.926323
 C   -4.705720    1.212700    0.321816
 C   -3.662788    0.451513   -1.750605
 C   -3.328392    0.686687   -3.099060
 C   -3.675825    1.860353   -3.708723
 C   -4.371128    2.848418   -2.996770
 C   -4.708993    2.645429   -1.687886
 C   -4.367297    1.446910   -1.027945
 N   -0.443061   -1.908508   -0.349464
 C    0.649829   -1.547981    0.443250
 C    1.055647   -2.338042    1.530399
 C    2.139096   -1.991501    2.312097
 C    2.810260   -0.831101    1.976108
 C    2.412870   -0.026569    0.885996
 C    1.321965   -0.380824    0.106934
 O    3.892104   -0.243590    2.542048
 C    4.106527    0.870736    1.791114
 N    3.269851    1.039350    0.814720
 C    5.206601    1.753747    2.116880
 C    5.432960    2.900403    1.354048
 C    6.496787    3.714422    1.701621
 N    7.308245    3.463462    2.716244
 C    7.090774    2.376652    3.436819
 C    6.059840    1.486199    3.187328
 H   -3.288096   -3.397418   -0.932334
 H   -0.929530   -3.372942   -2.885054
 H   -1.621773   -4.810341   -2.112653
 H   -2.582289   -3.869146   -3.268705
 H   -3.383821   -1.857989    0.748475
 H   -4.608067   -0.139832    1.959966
 H   -5.243933    1.975150    0.864899
 H   -2.797285   -0.081647   -3.639690
 H   -3.417724    2.033095   -4.743185
 H   -4.638635    3.770287   -3.492217
 H   -5.246006    3.402850   -1.135024
 H   -0.639885   -1.276490   -1.117933
 H    0.499159   -3.233217    1.751565
 H    2.447701   -2.600034    3.146037
 H    1.015417    0.234261   -0.724137
 H    4.784881    3.124917    0.523236
 H    6.715774    4.614867    1.143063
 H    7.779985    2.214222    4.255150
 H    5.915237    0.609562    3.798692
