50 
4ixh_ligand_aiqm1.xyz
 O   -1.200347   -3.780953    0.632339
 C   -1.272488   -2.890224   -0.194986
 C   -2.379287   -2.913642   -1.250178
 C   -1.979748   -3.829873   -2.388796
 O   -2.613583   -1.631066   -1.817376
 C   -3.367931   -0.739791   -1.093362
 C   -3.716688   -0.926992    0.220267
 C   -4.483461    0.071821    0.878140
 C   -4.867955    1.212687    0.230081
 C   -3.739204    0.437262   -1.805429
 C   -3.365819    0.648784   -3.157883
 C   -3.741805    1.797381   -3.805511
 C   -4.503630    2.783078   -3.132864
 C   -4.872979    2.597983   -1.825307
 C   -4.500359    1.421984   -1.125706
 N   -0.419341   -1.842901   -0.320634
 C    0.713093   -1.515154    0.449754
 C    1.199465   -2.372707    1.456921
 C    2.325342   -2.036182    2.201595
 C    2.934238   -0.830100    1.899110
 C    2.468490    0.028761    0.906320
 C    1.340227   -0.303979    0.160108
 O    4.043068   -0.254864    2.462881
 C    4.181520    0.921990    1.774046
 N    3.299289    1.145046    0.857304
 C    5.303887    1.776699    2.157595
 C    5.512531    2.992357    1.507140
 C    6.590713    3.772171    1.903558
 N    7.443480    3.426716    2.874182
 C    7.227041    2.257306    3.486499
 C    6.181368    1.398994    3.171777
 H   -3.273865   -3.298456   -0.758540
 H   -1.090179   -3.438179   -2.886398
 H   -1.760472   -4.822281   -1.998707
 H   -2.787916   -3.899573   -3.114672
 H   -3.420761   -1.809962    0.768730
 H   -4.757410   -0.083876    1.912899
 H   -5.450588    1.968844    0.740184
 H   -2.784680   -0.106703   -3.672046
 H   -3.456956    1.955374   -4.837727
 H   -4.793564    3.684988   -3.656149
 H   -5.454704    3.350302   -1.306691
 H   -0.675213   -1.186968   -1.040022
 H    0.687865   -3.300639    1.655458
 H    2.703521   -2.686570    2.977487
 H    0.971818    0.360903   -0.611324
 H    4.847950    3.310670    0.717537
 H    6.780828    4.721935    1.418867
 H    7.927341    1.993727    4.270034
 H    6.048255    0.463973    3.695993
