50 
4ixh_ligand_ani-2x.xyz
 O   -1.182709   -3.695533    0.689169
 C   -1.242462   -2.876078   -0.211156
 C   -2.433272   -2.900987   -1.179659
 C   -2.182570   -3.913156   -2.286163
 O   -2.663175   -1.633784   -1.789797
 C   -3.311027   -0.661067   -1.073676
 C   -3.482250   -0.693947    0.289939
 C   -4.136636    0.381785    0.936639
 C   -4.599526    1.458466    0.232036
 C   -3.772573    0.455711   -1.847206
 C   -3.595053    0.520124   -3.253496
 C   -4.052123    1.602103   -3.962917
 C   -4.705638    2.665535   -3.298533
 C   -4.888725    2.627247   -1.941495
 C   -4.426011    1.520970   -1.178305
 N   -0.299420   -1.923072   -0.468856
 C    0.828931   -1.597496    0.315922
 C    1.400598   -2.520387    1.206250
 C    2.530758   -2.188717    1.945927
 C    3.046639   -0.919301    1.763917
 C    2.495409    0.014503    0.890979
 C    1.365764   -0.320708    0.142468
 O    4.132492   -0.344063    2.360755
 C    4.178594    0.908693    1.815013
 N    3.257550    1.180729    0.955098
 C    5.265440    1.786247    2.272224
 C    5.377030    3.075337    1.761732
 C    6.417962    3.873704    2.219204
 N    7.317506    3.475250    3.120543
 C    7.195524    2.235297    3.599907
 C    6.194855    1.351068    3.214407
 H   -3.311004   -3.200160   -0.594599
 H   -1.273122   -3.657273   -2.839622
 H   -2.059311   -4.908900   -1.849981
 H   -3.024445   -3.929734   -2.983575
 H   -3.121830   -1.526123    0.890003
 H   -4.272646    0.337717    2.014660
 H   -5.102650    2.280122    0.736133
 H   -3.093201   -0.306499   -3.747176
 H   -3.914165    1.646689   -5.040249
 H   -5.062341    3.515783   -3.874952
 H   -5.390610    3.443433   -1.426549
 H   -0.530477   -1.252431   -1.186267
 H    0.946522   -3.496033    1.317879
 H    2.977956   -2.896117    2.635899
 H    0.919419    0.396355   -0.542744
 H    4.664993    3.437596    1.026480
 H    6.536144    4.887738    1.841845
 H    7.940151    1.931312    4.333998
 H    6.139135    0.352151    3.634448
