39 
4j0r_ligand_dft.xyz
 C    0.087461    0.394201   -0.470023
 C   -3.600806   -2.176074   -0.860624
 C   -0.752390    1.502595   -0.418112
 C   -0.261239    2.719261    0.043459
 C   -3.047444   -0.136454    0.950950
 C    1.066174    2.811655    0.463244
 C    1.898305    1.695449    0.443350
 C   -2.195413    1.373084   -0.880357
 C   -2.806340    0.064584   -0.410829
 C   -3.558876   -1.346635    1.401904
 C   -3.832981   -2.371953    0.495958
 C    1.408212    0.473792   -0.021002
 O   -2.912699    2.492708   -0.389851
 C   -3.092442   -0.958236   -1.311260
 O    1.597930    3.974313    0.927890
 C    2.239386   -0.739183   -0.005535
 C    1.855647   -2.002698    0.343047
 C    0.577544   -2.587681    0.834581
 O    2.892108   -2.841424    0.208699
 N    3.999697   -2.145838   -0.241515
 C    3.616958   -0.900060   -0.361424
 C    4.580932    0.136130   -0.842347
 H   -0.289626   -0.548722   -0.852164
 H   -3.817748   -2.967343   -1.572073
 H   -0.920845    3.581065    0.084855
 H   -2.821822    0.663580    1.650308
 H    2.909208    1.791493    0.824235
 H   -2.201369    1.381302   -1.983018
 H   -3.740678   -1.495971    2.462139
 H   -4.230154   -3.318533    0.850240
 H   -3.836041    2.375357   -0.642806
 H   -2.909749   -0.806667   -2.372776
 H    0.918467    4.658860    0.909017
 H    0.778446   -3.337429    1.604767
 H   -0.063120   -1.806028    1.249998
 H    0.026258   -3.075927    0.023137
 H    4.930401    0.763486   -0.015593
 H    5.449568   -0.345866   -1.296034
 H    4.106082    0.792768   -1.577408
