39 
4j0r_ligand_ani-2x.xyz
 C   -0.247837   -0.311466   -0.537918
 C    3.783747    2.119870   -0.054455
 C    0.598989   -1.384359   -0.785189
 C    0.085349   -2.677068   -0.776926
 C    2.596630   -0.083636    1.164755
 C   -1.266556   -2.877326   -0.506888
 C   -2.104715   -1.804334   -0.227000
 C    2.063546   -1.127870   -1.079910
 C    2.627135   -0.001563   -0.230641
 C    3.159933    0.922404    1.941495
 C    3.752291    2.028291    1.333571
 C   -1.590398   -0.509038   -0.218945
 O    2.783407   -2.333431   -0.870802
 C    3.226516    1.105145   -0.830326
 O   -1.815450   -4.123555   -0.489948
 C   -2.407659    0.646860    0.169013
 C   -1.986073    1.752985    0.851121
 C   -0.676832    2.180390    1.435279
 O   -3.010176    2.596061    1.003323
 N   -4.145271    2.067739    0.424186
 C   -3.797078    0.908778   -0.067811
 C   -4.820750    0.076877   -0.778574
 H    0.154123    0.697688   -0.579700
 H    4.245467    2.979326   -0.535402
 H    0.744571   -3.518193   -0.974056
 H    2.128264   -0.945716    1.636500
 H   -3.147064   -2.002409    0.004050
 H    2.158366   -0.815446   -2.134201
 H    3.138641    0.845111    3.026539
 H    4.190229    2.814273    1.944357
 H    3.719314   -2.095160   -0.856871
 H    3.255695    1.171608   -1.916456
 H   -1.125018   -4.769221   -0.688768
 H   -0.839420    2.834193    2.294689
 H   -0.088522    1.311048    1.744687
 H   -0.079752    2.732795    0.698923
 H   -5.215439   -0.708968   -0.122925
 H   -5.660293    0.703961   -1.087566
 H   -4.388011   -0.406844   -1.659307
