39 
4j0s_ligand_dft.xyz
 C   -0.087462    0.394201   -0.470023
 C    3.558878   -1.346633    1.401905
 C    0.752390    1.502594   -0.418113
 C    0.261240    2.719260    0.043459
 C    3.092441   -0.958239   -1.311259
 C   -1.066172    2.811655    0.463246
 C   -1.898305    1.695450    0.443353
 C    2.195413    1.373082   -0.880360
 C    2.806340    0.064582   -0.410830
 C    3.600805   -2.176075   -0.860622
 C    3.832981   -2.371952    0.495960
 C   -1.408212    0.473792   -0.021001
 O    2.912699    2.492707   -0.389857
 C    3.047444   -0.136453    0.950949
 O   -1.597927    3.974314    0.927893
 C   -2.239387   -0.739182   -0.005534
 C   -1.855648   -2.002697    0.343048
 C   -0.577546   -2.587680    0.834583
 O   -2.892108   -2.841423    0.208698
 N   -3.999698   -2.145838   -0.241516
 C   -3.616959   -0.900059   -0.361424
 C   -4.580932    0.136131   -0.842348
 H    0.289624   -0.548723   -0.852166
 H    3.740680   -1.495968    2.462140
 H    0.920847    3.581064    0.084855
 H    2.909747   -0.806671   -2.372776
 H   -2.909207    1.791494    0.824238
 H    2.201366    1.381298   -1.983021
 H    3.817747   -2.967346   -1.572069
 H    4.230155   -3.318533    0.850243
 H    3.836041    2.375356   -0.642813
 H    2.821823    0.663582    1.650306
 H   -0.918463    4.658860    0.909020
 H   -0.026259   -3.075927    0.023141
 H   -0.778447   -3.337427    1.604770
 H    0.063118   -1.806026    1.250000
 H   -4.106083    0.792764   -1.577414
 H   -5.449571   -0.345864   -1.296030
 H   -4.930395    0.763492   -0.015596
