39 
4j0s_ligand_aiqm1.xyz
 C   -0.319663   -0.594961    0.220795
 C    3.676213    1.820642   -0.795435
 C    0.597359   -1.271903   -0.585937
 C    0.212462   -1.702449   -1.856981
 C    3.255736    0.143800    1.380594
 C   -1.082845   -1.442604   -2.306269
 C   -1.995110   -0.768161   -1.504594
 C    1.989706   -1.517779   -0.051205
 C    2.749960   -0.214938    0.128509
 C    3.961111    1.334909    1.547881
 C    4.171642    2.174754    0.458373
 C   -1.617276   -0.344718   -0.230383
 O    2.664649   -2.391437   -0.950730
 C    2.969468    0.633114   -0.959875
 O   -1.517583   -1.834879   -3.541351
 C   -2.596845    0.340498    0.631805
 C   -2.459591    1.501321    1.331330
 C   -1.367974    2.497740    1.468181
 O   -3.601488    1.763024    1.994666
 N   -4.520567    0.752138    1.745765
 C   -3.928608   -0.086833    0.932837
 C   -4.644498   -1.309943    0.472760
 H   -0.018273   -0.261742    1.206112
 H    3.843276    2.471758   -1.644156
 H    0.910960   -2.245041   -2.480052
 H    3.095060   -0.514241    2.227859
 H   -2.988781   -0.583351   -1.888797
 H    1.907066   -1.987200    0.938189
 H    4.345453    1.600010    2.524145
 H    4.720394    3.098591    0.583191
 H    3.564362   -2.496872   -0.634916
 H    2.588566    0.348218   -1.931824
 H   -0.809015   -2.305200   -3.985317
 H   -1.109847    2.643289    2.517450
 H   -1.682519    3.456802    1.054933
 H   -0.486430    2.155374    0.928647
 H   -4.024116   -2.195906    0.611506
 H   -5.572265   -1.419627    1.032276
 H   -4.880547   -1.246098   -0.590087
