39 
4j0s_ligand_ani-2x.xyz
 C   -0.220616   -0.667028    0.042393
 C    3.070954    2.227779   -0.215272
 C    0.659281   -1.409100   -0.735073
 C    0.176471   -2.106876   -1.837331
 C    3.227224   -0.022783    1.406895
 C   -1.178634   -2.039440   -2.153308
 C   -2.050963   -1.269238   -1.393055
 C    2.126460   -1.462992   -0.358181
 C    2.634141   -0.124248    0.149252
 C    3.733615    1.194527    1.858413
 C    3.657266    2.321562    1.046026
 C   -1.568104   -0.556337   -0.297146
 O    2.867246   -1.893425   -1.490119
 C    2.558244    1.014088   -0.658952
 O   -1.698053   -2.706764   -3.220806
 C   -2.425222    0.350010    0.476446
 C   -2.053313    1.530512    1.054932
 C   -0.775035    2.305659    1.111350
 O   -3.101644    2.063062    1.687466
 N   -4.203646    1.245861    1.543239
 C   -3.811638    0.230374    0.821016
 C   -4.790684   -0.854272    0.489124
 H    0.158511   -0.152186    0.921547
 H    3.014650    3.105934   -0.855132
 H    0.861691   -2.691848   -2.444946
 H    3.291719   -0.907275    2.038138
 H   -3.095510   -1.220986   -1.685794
 H    2.249461   -2.187734    0.465065
 H    4.190891    1.260293    2.843162
 H    4.055503    3.273043    1.390584
 H    3.796125   -1.715989   -1.293674
 H    2.094591    0.938831   -1.641019
 H   -0.986161   -3.188301   -3.661760
 H   -0.166728    1.997987    1.971100
 H   -0.981928    3.373257    1.210878
 H   -0.177065    2.132492    0.211324
 H   -4.317155   -1.838869    0.546307
 H   -5.634177   -0.818916    1.182526
 H   -5.188168   -0.730563   -0.525717
