49 
4j1p_ligand_aiqm1.xyz
 O   14.454428   21.261723   -7.581688
 C   15.356091   22.207592   -7.025659
 C   13.292329   21.054565   -6.914650
 C   12.430348   20.118472   -7.503222
 C   11.216194   19.828253   -6.907726
 N    9.405735   20.960897   -3.867474
 C   10.713328   18.292268   -8.635299
 O   10.348873   18.940280   -7.428454
 C   10.832513   20.471986   -5.701068
 O    9.008377   24.654055    1.337878
 N   11.444331   22.105292   -3.960895
 C    9.571277   20.191335   -5.029197
 C   10.310342   21.871577   -3.385884
 O    6.621021   24.973731    2.913213
 O    8.695733   19.405969   -5.340010
 C    9.944213   22.592729   -2.148257
 C    8.613663   22.746213   -1.761326
 C    8.268696   23.423235   -0.591306
 C    6.819052   23.602075   -0.212298
 C    9.303455   23.943866    0.195637
 C    8.653310   23.846813    2.456555
 C    7.910807   24.700083    3.445437
 C   10.645853   23.826672   -0.180294
 C   11.731474   24.441611    0.661724
 C   10.947511   23.152304   -1.358347
 C   11.719831   21.411226   -5.132746
 C   12.946242   21.698824   -5.739110
 H   14.903023   23.199347   -6.972329
 H   15.681422   21.902737   -6.028963
 H   16.209683   22.231872   -7.696341
 H   12.750928   19.647850   -8.420281
 H    8.556712   20.768272   -3.360075
 H   10.851549   19.010402   -9.447168
 H   11.624655   17.702263   -8.511420
 H    9.882092   17.635235   -8.866830
 H    6.230694   25.695445    3.405992
 H    7.810169   22.375307   -2.387810
 H    6.218055   23.788461   -1.103854
 H    6.414513   22.701842    0.260241
 H    6.691088   24.426502    0.482663
 H    9.562878   23.451812    2.928322
 H    8.029858   23.006407    2.146274
 H    7.823292   24.147046    4.386469
 H    8.470449   25.620050    3.629704
 H   11.601160   25.521999    0.726736
 H   11.708634   24.056187    1.681883
 H   12.714538   24.236211    0.239394
 H   11.979265   23.058429   -1.670967
 H   13.578318   22.426780   -5.257873
