49 
4j3i_ligand_xtb.xyz
 O   -8.846054   -6.600222   -0.979285
 C   -8.020089   -7.627459   -0.483885
 C   -9.982298   -6.301281   -0.298229
 C  -10.744175   -5.264501   -0.854283
 C  -11.926500   -4.851967   -0.268793
 N  -13.859673   -5.862053    2.726874
 C  -12.311254   -3.192275   -1.920212
 O  -12.703007   -3.864609   -0.748994
 C  -12.372005   -5.491269    0.914124
 O  -14.511427   -9.691912    7.843799
 N  -11.957069   -7.189101    2.607355
 C  -13.612684   -5.114277    1.571383
 C  -13.046720   -6.845387    3.205266
 O  -16.633881  -10.062896    5.673940
 O  -14.416520   -4.270288    1.239696
 C  -13.436258   -7.541366    4.434601
 C  -14.289909   -6.973803    5.375900
 C  -14.655994   -7.657721    6.523421
 C  -15.532763   -6.981989    7.534751
 C  -14.175282   -8.956820    6.720870
 C  -15.846709  -10.146014    7.924229
 C  -16.286835  -10.960697    6.706028
 C  -13.265222   -9.518044    5.817124
 C  -12.666416  -10.872512    6.059255
 C  -12.909390   -8.803906    4.686871
 C  -11.595605   -6.531335    1.464308
 C  -10.403445   -6.932808    0.854663
 H   -7.649329   -7.393805    0.518702
 H   -8.545328   -8.587157   -0.462037
 H   -7.180902   -7.689792   -1.174915
 H  -10.364443   -4.808637   -1.753078
 H  -14.729350   -5.649352    3.199836
 H  -11.349194   -2.685821   -1.790882
 H  -12.251206   -3.874086   -2.774786
 H  -13.088239   -2.451826   -2.102271
 H  -16.820446  -10.555676    4.868858
 H  -14.655912   -5.964418    5.249241
 H  -15.366260   -5.906982    7.515926
 H  -16.584166   -7.162578    7.308723
 H  -15.318065   -7.351927    8.534859
 H  -16.551318   -9.316099    8.041624
 H  -15.871574  -10.772948    8.818590
 H  -15.471920  -11.624639    6.392949
 H  -17.154813  -11.573874    6.988857
 H  -11.580638  -10.807949    6.023550
 H  -12.962905  -11.251984    7.032923
 H  -12.982838  -11.573315    5.286967
 H  -12.218638   -9.223049    3.972436
 H   -9.852731   -7.730871    1.321553
