49 
4j3i_ligand_ani-2x.xyz
 O   -8.737409   -6.378500   -0.963793
 C   -7.881403   -7.359772   -0.421557
 C   -9.914132   -6.165604   -0.322136
 C  -10.738810   -5.176673   -0.896701
 C  -11.966078   -4.884029   -0.322189
 N  -13.881991   -6.057237    2.643231
 C  -12.374147   -3.242892   -1.972762
 O  -12.789251   -3.949396   -0.823972
 C  -12.401334   -5.574485    0.839629
 O  -14.424928   -9.764704    7.811695
 N  -11.872432   -7.260801    2.541902
 C  -13.709841   -5.327159    1.462272
 C  -12.988079   -6.981839    3.126700
 O  -17.057872   -9.627488    6.080029
 O  -14.602152   -4.599997    1.084003
 C  -13.379379   -7.677576    4.380862
 C  -14.167641   -7.060260    5.352639
 C  -14.537449   -7.723889    6.519093
 C  -15.382521   -7.026035    7.555928
 C  -14.107610   -9.047730    6.681153
 C  -15.785103  -10.121942    8.048241
 C  -16.530138  -10.692910    6.852682
 C  -13.269438   -9.678539    5.748737
 C  -12.771377  -11.082259    5.996196
 C  -12.918075   -8.974410    4.603274
 C  -11.550624   -6.544721    1.402757
 C  -10.305920   -6.843889    0.809308
 H   -7.575282   -7.102453    0.600441
 H   -8.358442   -8.348106   -0.417566
 H   -7.002624   -7.384540   -1.067235
 H  -10.374227   -4.673386   -1.783835
 H  -14.801251   -5.966721    3.062231
 H  -11.450516   -2.680724   -1.786538
 H  -12.227739   -3.915742   -2.826926
 H  -13.180414   -2.544532   -2.199474
 H  -17.097761   -9.907421    5.158769
 H  -14.465744   -6.020622    5.232331
 H  -15.272515   -5.940243    7.476680
 H  -16.446258   -7.257291    7.421555
 H  -15.091903   -7.327867    8.567023
 H  -16.355210   -9.264496    8.421523
 H  -15.721733  -10.862910    8.850564
 H  -15.838389  -11.320480    6.271728
 H  -17.347475  -11.332622    7.221431
 H  -12.442433  -11.203132    7.032523
 H  -13.554376  -11.829482    5.815402
 H  -11.935814  -11.318961    5.330423
 H  -12.265748   -9.429375    3.861435
 H   -9.706412   -7.607455    1.288696
