40 
4j58_ligand_xtb.xyz
 C    7.376311   21.619604   19.548046
 C    8.801377   21.254970   19.150109
 C    8.763722   21.404677   17.630146
 C    7.383472   20.856412   17.265137
 N    6.573379   21.141251   18.433217
 C    5.259050   20.914809   18.568031
 O    4.654416   21.139810   19.603921
 C    4.541486   20.379071   17.333324
 N    3.186484   20.026819   17.677368
 C    2.792552   18.714833   17.536953
 O    3.415947   17.911368   16.868982
 N    1.594968   18.436341   18.121278
 C    1.060981   17.089923   18.156147
 C    1.166088   16.484387   19.531127
 C    2.415302   16.315943   20.118759
 C    2.536947   15.787869   21.386287
 C    1.403345   15.409008   22.107495
 N    1.516105   14.944894   23.403574
 C    0.150962   15.576622   21.518038
 C    0.038939   16.112861   20.250180
 H    7.255971   22.704150   19.651397
 H    7.038051   21.149217   20.472762
 H    9.014448   20.220168   19.419704
 H    9.540685   21.899634   19.619412
 H    9.564866   20.864887   17.130330
 H    8.830792   22.458943   17.359685
 H    7.426240   19.775045   17.087884
 H    6.970535   21.333981   16.373051
 H    5.032942   19.482509   16.942349
 H    4.545321   21.150346   16.551958
 H    2.854063   20.533825   18.489889
 H    1.203247   19.098977   18.771019
 H    1.653501   16.517265   17.436465
 H    0.016864   17.108206   17.826011
 H    3.298856   16.599828   19.565843
 H    3.513511   15.661314   21.831858
 H    2.415882   14.577053   23.667034
 H    0.731599   14.423339   23.759719
 H   -0.734947   15.286155   22.065119
 H   -0.941058   16.235186   19.810290
