56 
4j59_ligand_aiqm1.xyz
 C    6.527425   -0.716241    0.164439
 C    7.201816    0.498195    0.097894
 C    6.492544    1.701465    0.075323
 N    7.170188    2.931347    0.083720
 C    5.096744    1.652052    0.115571
 C    4.428096    0.434035    0.175416
 C    5.134125   -0.773611    0.195626
 C    4.412422   -2.102542    0.241257
 N    3.233425   -2.082595    1.096208
 C    1.998636   -1.915930    0.541789
 O    1.776208   -2.049527   -0.651623
 N    0.982305   -1.644327    1.452333
 C   -0.213112   -1.075720    0.868055
 C    0.021847    0.387869    0.488523
 O    1.013865    0.978846    0.896421
 N   -0.906969    0.980576   -0.286240
 C   -0.713688    2.367123   -0.711903
 C   -2.023064    2.683249   -1.428828
 C   -2.404188    1.333242   -2.031851
 C   -2.054190    0.332095   -0.918932
 C   -3.221091    0.106573    0.030810
 C   -4.306283   -0.731230   -0.378970
 C   -4.333417   -1.405293   -1.631795
 C   -5.393236   -2.202162   -1.987365
 C   -6.491867   -2.369102   -1.114616
 C   -6.497267   -1.731412    0.098352
 C   -5.413684   -0.904628    0.493769
 C   -5.426812   -0.248756    1.751715
 C   -4.380280    0.547337    2.126146
 C   -3.274461    0.726443    1.257692
 H    7.104020   -1.634209    0.191887
 H    8.286380    0.512850    0.078372
 H    6.628466    3.684347   -0.312649
 H    8.079942    2.886402   -0.349717
 H    4.526900    2.574919    0.114641
 H    3.346479    0.428487    0.214748
 H    5.095500   -2.881990    0.597595
 H    4.064079   -2.392533   -0.749935
 H    3.357368   -1.795517    2.052897
 H    1.295855   -1.129926    2.261597
 H   -1.039771   -1.141272    1.576369
 H   -0.474187   -1.664011   -0.005826
 H   -0.515571    2.995686    0.154615
 H    0.148908    2.439484   -1.377901
 H   -2.781939    3.003595   -0.712253
 H   -1.903480    3.463937   -2.178697
 H   -3.447284    1.268025   -2.334581
 H   -1.777457    1.125495   -2.901325
 H   -1.748934   -0.624998   -1.344336
 H   -3.509492   -1.295802   -2.322638
 H   -5.387072   -2.707462   -2.943852
 H   -7.321323   -2.999818   -1.405411
 H   -7.333007   -1.851666    0.777900
 H   -6.277968   -0.389209    2.407783
 H   -4.390744    1.047602    3.085715
 H   -2.461906    1.370012    1.572465
