54 
4j5e_ligand_xtb.xyz
 C   -4.463053   -2.996344    1.992295
 O   -3.931906   -2.173521    0.981361
 C   -4.276128   -0.853930    0.963642
 C   -5.196979   -0.268063    1.822753
 C   -5.487293    1.082305    1.715894
 C   -4.863142    1.859211    0.759889
 C   -3.939881    1.279158   -0.094888
 C   -3.635329   -0.067537   -0.006647
 C   -2.647061   -0.735646   -0.936812
 C   -3.358167   -1.358810   -2.149587
 C   -3.369382   -0.219262   -3.164832
 C   -2.005370    0.426933   -2.953018
 N   -1.722490    0.201314   -1.543311
 C   -0.718735    0.846502   -0.932290
 O   -0.002265    1.644456   -1.516802
 C   -0.520773    0.548185    0.549481
 N    0.669085    1.217215    1.014649
 C    1.676750    0.466144    1.572140
 O    1.507388   -0.673484    1.963463
 N    2.842702    1.151209    1.741641
 C    4.044055    0.495904    2.216493
 C    5.042096    0.286456    1.108048
 C    4.692327   -0.473917   -0.002711
 C    5.579010   -0.660689   -1.041554
 C    6.851658   -0.088856   -0.997978
 N    7.717412   -0.215352   -2.067181
 C    7.203114    0.672116    0.116125
 C    6.305286    0.859238    1.148893
 H   -4.013859   -3.975981    1.837285
 H   -4.197510   -2.630729    2.988782
 H   -5.551513   -3.081767    1.911445
 H   -5.694840   -0.853938    2.578849
 H   -6.206402    1.522675    2.390162
 H   -5.088034    2.911389    0.678671
 H   -3.437505    1.888086   -0.831294
 H   -2.108220   -1.501583   -0.369414
 H   -4.353951   -1.713411   -1.894207
 H   -2.773087   -2.196509   -2.529722
 H   -4.166262    0.485098   -2.924673
 H   -3.505823   -0.567821   -4.186140
 H   -1.984563    1.496903   -3.171271
 H   -1.232409   -0.055768   -3.561538
 H   -0.398050   -0.525120    0.728041
 H   -1.399604    0.893746    1.108242
 H    0.930948    1.990401    0.412994
 H    2.961983    2.032032    1.267590
 H    3.715452   -0.464488    2.625103
 H    4.486918    1.093720    3.020325
 H    3.712290   -0.926541   -0.042561
 H    5.295282   -1.254134   -1.899205
 H    7.541943   -0.986053   -2.691363
 H    8.691656   -0.049656   -1.872912
 H    8.186052    1.119543    0.163165
 H    6.596379    1.453071    2.004192
