52 
4j5p_ligand_xtb.xyz
 C   -2.124786   -0.147888    0.751227
 C   -2.646519   -0.723933    1.892989
 C   -2.796953    0.042836    3.042531
 C   -3.369102   -0.518524    4.304633
 C   -2.391161    1.374629    2.968236
 N   -1.892186    1.940676    1.890836
 C   -1.761534    1.199185    0.790788
 C   -1.233697    1.869110   -0.375958
 O   -1.161345    1.224508   -1.573263
 C   -0.752028    3.136640   -0.571794
 N   -0.380705    3.269477   -1.873853
 C   -0.641223    2.120415   -2.422314
 C   -0.373572    1.760106   -3.848117
 O   -0.687093    2.833891   -4.697533
 C    1.102271    1.332399   -4.015441
 C    1.598648    0.366696   -2.940315
 C    0.900539   -0.996620   -2.956330
 C    0.969103   -1.697616   -1.599453
 C    2.392959   -2.008906   -1.146985
 C    2.422681   -2.564955    0.279550
 C    1.794755   -1.645837    1.293674
 C    0.871052   -2.136920    2.207538
 C    0.313401   -1.313505    3.169614
 C    0.657350    0.025234    3.221474
 C    1.563283    0.531741    2.306150
 C    2.134245   -0.298931    1.359419
 H   -1.998364   -0.716109   -0.156878
 H   -2.937145   -1.765299    1.892240
 H   -4.355777   -0.094318    4.490809
 H   -2.736404   -0.269691    5.154975
 H   -3.466330   -1.599627    4.239593
 H   -2.478846    2.023105    3.831596
 H   -0.653924    3.935356    0.131447
 H   -1.041991    0.943293   -4.138116
 H   -0.306212    3.634938   -4.315178
 H    1.217198    0.892278   -5.006978
 H    1.707544    2.241678   -3.976292
 H    2.671876    0.227827   -3.084594
 H    1.460573    0.828976   -1.959955
 H    1.348448   -1.629133   -3.725688
 H   -0.151861   -0.863901   -3.209209
 H    0.494027   -1.058156   -0.851288
 H    0.398662   -2.628784   -1.647399
 H    2.841868   -2.738926   -1.824531
 H    2.997379   -1.103636   -1.192694
 H    3.464214   -2.743937    0.564983
 H    1.905581   -3.526974    0.302760
 H    0.591800   -3.180992    2.171580
 H   -0.390557   -1.720048    3.881195
 H    0.222891    0.672819    3.968091
 H    1.830077    1.577949    2.335071
 H    2.856790    0.108000    0.667257
