52 
4j5p_ligand_aiqm1.xyz
 C   -1.941672    0.207315    0.760922
 C   -2.333403   -0.325066    1.980303
 C   -2.633893    0.522078    3.049988
 C   -3.073170   -0.013135    4.382989
 C   -2.511820    1.890327    2.816485
 N   -2.133195    2.434721    1.652981
 C   -1.857776    1.598732    0.644547
 C   -1.447213    2.227449   -0.607918
 O   -1.186696    1.422349   -1.696461
 C   -1.226187    3.509291   -0.992438
 N   -0.815668    3.520522   -2.320648
 C   -0.812255    2.276117   -2.672580
 C   -0.401768    1.741728   -4.009806
 O   -0.669343    2.711181   -5.005952
 C    1.087279    1.364390   -4.007462
 C    1.524255    0.451658   -2.862530
 C    0.835335   -0.914900   -2.856720
 C    0.990034   -1.653203   -1.528212
 C    2.440369   -1.891305   -1.119543
 C    2.569568   -2.720959    0.159604
 C    1.884201   -2.096204    1.352562
 C    0.899035   -2.794461    2.055216
 C    0.255747   -2.226297    3.153902
 C    0.582168   -0.934517    3.565222
 C    1.557035   -0.227060    2.867239
 C    2.202037   -0.799446    1.775635
 H   -1.701543   -0.431474   -0.077517
 H   -2.392369   -1.398887    2.107946
 H   -4.025843   -0.537960    4.295213
 H   -3.189857    0.791138    5.108640
 H   -2.346818   -0.726362    4.776076
 H   -2.729605    2.596972    3.612154
 H   -1.335506    4.400710   -0.404734
 H   -1.017289    0.869043   -4.241414
 H   -0.591660    3.574848   -4.587387
 H    1.295736    0.898451   -4.972907
 H    1.659883    2.294932   -3.975182
 H    2.605907    0.312195   -2.929560
 H    1.340768    0.953442   -1.905725
 H    1.236363   -1.524901   -3.674592
 H   -0.233106   -0.793804   -3.059247
 H    0.485032   -1.079993   -0.741396
 H    0.474806   -2.616196   -1.590932
 H    2.971377   -2.399474   -1.930634
 H    2.943331   -0.928320   -0.978725
 H    3.629432   -2.873635    0.385248
 H    2.140085   -3.713545   -0.008057
 H    0.638034   -3.798915    1.740409
 H   -0.500480   -2.797468    3.682090
 H    0.083055   -0.476326    4.411282
 H    1.818088    0.776294    3.175391
 H    2.959075   -0.231470    1.246334
