62 
4j9a_ligand_ani-2x.xyz
 O   -7.634645   -0.546571    0.396928
 C   -6.567531   -0.002761    0.297634
 C   -5.419878   -0.325187   -0.575395
 O   -6.222651    1.089026    1.044940
 C   -4.917030    1.524459    0.702307
 C   -4.425014    0.537414   -0.335521
 C   -3.050441    0.497683   -0.934456
 C   -2.436007    1.906335   -1.147815
 C   -1.951239   -0.326489   -0.136901
 C   -2.523234   -1.277462    0.919579
 C   -1.106215   -1.128150   -1.158746
 O   -1.915900   -2.186160   -1.650775
 C   -1.051993    0.790472    0.492619
 C   -1.007358    1.876193   -0.581154
 O   -1.752033    1.403730    1.579352
 C    0.332777    0.298082    0.988949
 C    1.173097    1.456549    1.542396
 C    1.099669   -0.515987   -0.078419
 C    0.202502   -1.659843   -0.570618
 C    2.506856   -0.987170    0.418934
 C    2.380930   -2.038483    1.536447
 C    3.321944    0.228749    0.954198
 C    2.544499    0.989426    2.038511
 C    3.777176    1.184952   -0.163080
 C    4.576487    0.480006   -1.256873
 O    5.786642   -0.065686   -0.741362
 C    3.774403   -0.683446   -1.823908
 C    3.333762   -1.639765   -0.714286
 H   -5.435695   -1.155955   -1.271863
 H   -4.298862    1.544589    1.605645
 H   -4.989677    2.546061    0.311395
 H   -3.173162   -0.009064   -1.898834
 H   -2.446350    2.187052   -2.205678
 H   -3.023210    2.653579   -0.612752
 H   -1.734288   -1.716644    1.539269
 H   -3.053176   -2.100240    0.433380
 H   -3.226691   -0.761600    1.580315
 H   -0.852162   -0.458666   -1.998762
 H   -1.385085   -2.679265   -2.288899
 H   -0.715358    2.834505   -0.143709
 H   -0.280516    1.633074   -1.365500
 H   -1.841446    0.738591    2.275635
 H    0.124163   -0.384966    1.829284
 H    1.319140    2.211505    0.759422
 H    0.623800    1.956601    2.347175
 H    1.275591    0.145974   -0.942662
 H   -0.031519   -2.355284    0.243045
 H    0.714710   -2.244911   -1.344747
 H    1.932349   -2.965125    1.162380
 H    3.374942   -2.295362    1.920800
 H    1.780775   -1.698215    2.385230
 H    4.236962   -0.188232    1.397268
 H    2.420621    0.352953    2.924672
 H    3.134302    1.853563    2.369580
 H    4.389301    1.988242    0.273819
 H    2.916884    1.676164   -0.631551
 H    4.804261    1.196755   -2.063632
 H    6.299508    0.663172   -0.369861
 H    4.388162   -1.214633   -2.558884
 H    2.902767   -0.288676   -2.362411
 H    4.236373   -2.060964   -0.256275
 H    2.783413   -2.484693   -1.142081
