49 
4jai_ligand_aiqm1.xyz
 O   -2.401012  -33.304766    4.037600
 C   -3.309920  -32.801962    4.674478
 C   -4.296417  -31.858963    4.108555
 C   -4.264879  -31.664147    2.726324
 C   -5.254825  -30.923926    2.102355
 C   -6.299110  -30.412238    2.870751
 C   -6.323317  -30.584382    4.251806
 C   -5.295526  -31.276621    4.915607
 C   -5.242981  -31.481065    6.373840
 N   -3.533641  -33.134666    5.986159
 C   -4.400735  -32.501510    6.849142
 N   -4.320423  -32.931977    8.111436
 C   -5.077555  -32.285235    8.996677
 C   -5.861440  -31.184771    8.693045
 C   -5.939046  -30.743698    7.358952
 N   -6.633549  -29.593226    7.020678
 C   -7.350266  -28.776709    7.926570
 C   -8.374605  -29.295087    8.723365
 C   -9.081071  -28.461595    9.581559
 C   -7.089130  -27.406070    7.992355
 C   -7.802307  -26.562526    8.837505
 C   -8.808909  -27.094372    9.649664
 N   -9.561066  -26.324919   10.557795
 C   -9.630887  -24.959556   10.659752
 O   -9.011375  -24.198649    9.938965
 C  -10.560945  -24.462638   11.720520
 C  -11.111060  -23.193031   11.541105
 C  -11.988584  -22.669460   12.481446
 C  -12.309370  -23.406576   13.620284
 C  -11.742329  -24.662986   13.817761
 C  -10.872831  -25.192434   12.869458
 H   -3.464992  -32.132343    2.170179
 H   -5.235834  -30.773061    1.031552
 H   -7.113454  -29.880742    2.393754
 H   -7.177963  -30.214581    4.795750
 H   -2.918585  -33.820557    6.398787
 H   -5.020435  -32.641534   10.018111
 H   -6.374886  -30.656091    9.480785
 H   -6.253970  -29.096817    6.232668
 H   -8.610973  -30.350814    8.682236
 H   -9.863715  -28.887915   10.200262
 H   -6.314850  -26.982707    7.361214
 H   -7.581935  -25.507461    8.861174
 H  -10.221993  -26.836216   11.113866
 H  -10.829715  -22.632838   10.660356
 H  -12.415241  -21.686017   12.333511
 H  -12.989185  -22.999293   14.356730
 H  -11.970936  -25.228844   14.711121
 H  -10.410626  -26.156208   13.055838
