29 
4jaz_ligand_ani-2x.xyz
 C   15.892013   19.375892    9.667245
 C   14.529295   19.540059    9.896081
 C   13.941256   20.765640    9.608833
 C   14.691655   21.823087    9.095078
 C   16.056466   21.648910    8.858135
 C   16.656527   20.422211    9.153842
 C   16.904480   22.723500    8.306958
 C   16.483473   23.854075    7.723977
 C   17.328371   24.970548    7.268536
 C   18.674648   25.099478    7.633388
 C   19.442599   26.158994    7.181311
 C   18.874404   27.122892    6.347972
 C   17.533745   27.020859    5.977874
 C   16.776669   25.954065    6.442091
 O   19.677616   28.138832    5.932451
 O   12.606624   20.876045    9.855061
 O   16.421014   18.158754    9.969031
 H   13.936335   18.724891   10.295089
 H   14.212554   22.781888    8.908784
 H   17.720537   20.279921    8.972999
 H   17.973412   22.528118    8.378542
 H   15.419283   23.982449    7.527835
 H   19.130317   24.369628    8.298638
 H   20.486851   26.256304    7.463172
 H   17.083263   27.772824    5.331045
 H   15.732286   25.880009    6.147790
 H   19.169639   28.734182    5.367072
 H   12.316702   21.764584    9.613336
 H   17.366266   18.169363    9.773036
