70 
4jfi_ligand_xtb.xyz
 O    0.038449    1.086334   -4.419623
 C    0.176429    1.585479   -3.317529
 C   -0.753978    2.691755   -2.827590
 N    1.132761    1.176733   -2.456502
 C    1.887125   -0.015161   -2.781603
 C    1.358941   -1.153659   -1.917014
 C    1.450191   -0.765271   -0.468112
 C    1.527761   -1.767635    0.492667
 C    1.704751   -1.442336    1.826373
 O    1.794938   -2.329435    2.848302
 C    1.663589   -3.706047    2.563931
 C    1.852272   -0.101491    2.185771
 C    1.785430    0.896319    1.232462
 O    2.004438    2.214282    1.509482
 C    2.171854    2.607144    2.852145
 C    1.519638    0.574228   -0.112049
 C    1.412326    1.697293   -1.131638
 C    0.381859    2.776806   -0.713974
 C    0.882495    4.193064   -1.029823
 C    1.055705    4.399730   -2.531015
 C   -0.258132    4.080629   -3.236232
 N   -0.869902    2.568339   -1.391868
 C   -2.001861    2.095722   -0.834601
 O   -3.056771    2.008068   -1.437844
 C   -1.858418    1.561734    0.590404
 O   -1.785949    2.275032    1.571269
 C   -1.815817    0.093956    0.640497
 C   -1.964703   -0.679462   -0.506344
 C   -1.596704   -0.526571    1.871243
 C   -1.523119   -1.902021    1.947120
 O   -1.331615   -2.609559    3.090010
 C   -1.158775   -1.897192    4.292420
 C   -1.657796   -2.693322    0.781622
 O   -1.499410   -4.024568    1.002213
 C   -1.981702   -4.979333    0.080635
 C   -1.891419   -2.063217   -0.451880
 O   -2.013966   -2.849148   -1.567354
 C   -2.496285   -2.262208   -2.757749
 H   -1.740464    2.508777   -3.266976
 H    1.749253   -0.220107   -3.844266
 H    2.946886    0.161958   -2.574528
 H    0.319927   -1.355832   -2.185488
 H    1.930955   -2.065633   -2.094014
 H    1.455640   -2.794363    0.173598
 H    1.779884   -4.210890    3.521400
 H    0.678142   -3.936596    2.151722
 H    2.446497   -4.045950    1.878869
 H    2.041637    0.116716    3.223197
 H    2.285524    3.689698    2.825075
 H    1.294653    2.351439    3.452946
 H    3.066709    2.159438    3.294654
 H    2.401090    2.186229   -1.162088
 H    0.212005    2.712375    0.358531
 H    1.820333    4.360156   -0.499362
 H    0.146148    4.904436   -0.650114
 H    1.845840    3.751360   -2.914704
 H    1.345893    5.432163   -2.733183
 H   -1.016009    4.815256   -2.956556
 H   -0.135657    4.104390   -4.319648
 H   -2.151424   -0.198380   -1.450215
 H   -1.497485    0.100032    2.741676
 H   -0.264930   -1.268429    4.255084
 H   -2.033766   -1.282620    4.525441
 H   -1.033855   -2.655829    5.063070
 H   -1.388866   -4.994684   -0.835760
 H   -1.890619   -5.936740    0.593541
 H   -3.028727   -4.799961   -0.170825
 H   -1.770881   -1.574053   -3.203158
 H   -3.439348   -1.734948   -2.591872
 H   -2.659515   -3.094320   -3.441066
