41 
4jgv_ligand_aiqm1.xyz
 C  -15.893409   20.119911   -3.241868
 C  -17.090441   19.627880   -3.759801
 C  -17.042453   18.660269   -4.759193
 C  -15.834543   18.179561   -5.245057
 C  -14.634295   18.668962   -4.725657
 C  -14.674074   19.643552   -3.721246
 O  -18.272494   18.243881   -5.201301
 O  -18.261561   20.101394   -3.281118
 O  -16.010779   21.065795   -2.269064
 C  -13.357493   18.127615   -5.273259
 C  -12.058133   18.636282   -4.676028
 C  -10.819184   17.910632   -5.186929
 C  -10.694365   16.491037   -4.637054
 C   -9.486152   15.732204   -5.186965
 C   -8.119272   16.330857   -4.849371
 C   -7.819347   16.371054   -3.353575
 C   -6.433610   16.922416   -3.017901
 C   -5.290371   16.012397   -3.457710
 O  -13.383876   17.313361   -6.174266
 H  -15.807640   17.430002   -6.025592
 H  -13.758973   20.044513   -3.304012
 H  -18.156238   17.586381   -5.889692
 H  -18.971554   19.652987   -3.753936
 H  -15.128922   21.327252   -1.990161
 H  -12.122448   18.543259   -3.588493
 H  -12.000105   19.707278   -4.892553
 H   -9.936643   18.490584   -4.907722
 H  -10.846883   17.871336   -6.278717
 H  -11.601454   15.934258   -4.886836
 H  -10.651576   16.531345   -3.541905
 H   -9.580761   15.666390   -6.274571
 H   -9.521808   14.704913   -4.811926
 H   -8.041702   17.344901   -5.259224
 H   -7.350272   15.741937   -5.357498
 H   -7.913684   15.359277   -2.942823
 H   -8.576268   16.980397   -2.850342
 H   -6.367377   17.080541   -1.938499
 H   -6.318429   17.908043   -3.481082
 H   -5.385445   15.024023   -3.003678
 H   -5.273740   15.877440   -4.540275
 H   -4.324627   16.424982   -3.162600
