33 
4jin_ligand_ani-2x.xyz
 C   10.031348   -2.772657    6.804819
 N   10.764453   -0.439174    5.963267
 C    8.790835   -3.296169    6.723310
 C    7.450560   -1.475197    5.577491
 C   15.933678   -2.038001   10.547687
 C   15.088869   -1.389698   11.442888
 C   13.710501   -1.457590   11.260292
 C   13.178712   -2.167104   10.188324
 C   14.019161   -2.822964    9.287241
 C   15.398009   -2.749704    9.478463
 C   13.453889   -3.627207    8.134609
 N   12.328951   -2.981064    7.503996
 C   11.110012   -3.585345    7.439365
 C   10.407488   -1.481782    6.330575
 C    7.564617   -2.737548    6.166510
 C    6.211022   -1.078003    5.089170
 N    5.102381   -1.817054    5.137991
 C    5.217844   -3.022890    5.702139
 C    6.402549   -3.520824    6.221348
 O   10.897957   -4.707512    7.879006
 H    8.703154   -4.294816    7.142875
 H    8.292597   -0.797073    5.488189
 H   17.011957   -1.990213   10.681229
 H   15.502133   -0.833231   12.280366
 H   13.044101   -0.952482   11.955467
 H   12.100389   -2.210771   10.046505
 H   16.058854   -3.258321    8.778576
 H   13.081674   -4.601012    8.469961
 H   14.240902   -3.816035    7.392147
 H   12.450996   -2.048188    7.135260
 H    6.110617   -0.097185    4.628579
 H    4.309027   -3.622643    5.739324
 H    6.427464   -4.511243    6.667030
