76 
4jmu_ligand_xtb.xyz
 C   19.002390    1.204754   13.386182
 C   19.317975    1.383507   14.729509
 C   18.456811    2.079479   15.570789
 C   17.282659    2.619837   15.047176
 C   16.975423    2.451208   13.713940
 C   17.817058    1.737707   12.862990
 O   18.723213    2.333021   16.879280
 C   19.538268    1.488746   17.604870
 C   20.408617    2.069676   18.519648
 C   21.195346    1.271397   19.323440
 C   21.131908   -0.119051   19.227339
 C   20.250216   -0.694700   18.315059
 C   19.457781    0.104143   17.514731
 C   19.915869    0.382692   12.533192
 O   21.230313    0.629669   12.700359
 O   19.541092   -0.457031   11.767026
 N   17.496210    1.623289   11.492160
 C   17.913157    2.709272   10.602906
 C   17.122184    3.988301   10.873397
 C   19.414066    2.966374   10.691316
 C   16.767935    0.592949   10.968524
 C   16.326735   -0.482936   11.942187
 O   16.454778    0.573964    9.796607
 C   14.841303   -0.273541   12.257405
 C   14.322800   -1.383788   13.165011
 C   14.522599   -2.756381   12.522309
 C   16.006179   -2.960468   12.214844
 C   16.537630   -1.858056   11.306821
 C   13.992392   -3.864602   13.427858
 N   21.951494   -0.870099   20.067283
 C   22.110092   -2.230568   20.122951
 O   21.553471   -3.010467   19.377947
 C   23.060616   -2.681696   21.174814
 C   23.739033   -3.876996   20.959137
 C   24.634307   -4.373911   21.885640
 C   24.855502   -3.681306   23.073471
 C   24.154923   -2.494259   23.308471
 C   23.273578   -2.000252   22.373644
 O   25.705994   -4.067313   24.055299
 C   26.428240   -5.266130   23.894983
 H   20.223090    0.952502   15.137581
 H   16.625452    3.165087   15.705811
 H   16.059386    2.861577   13.319115
 H   20.451909    3.144833   18.594185
 H   21.868840    1.730104   20.033653
 H   20.187462   -1.766987   18.240918
 H   18.764201   -0.351429   16.823399
 H   21.395409    1.344812   13.328920
 H   17.666758    2.343331    9.600334
 H   16.054760    3.786371   10.830396
 H   17.369986    4.401651   11.849481
 H   17.360842    4.729574   10.115318
 H   19.684331    3.366177   11.668244
 H   19.969090    2.049686   10.510452
 H   19.699740    3.692531    9.934751
 H   16.904816   -0.421774   12.867322
 H   14.283338   -0.271289   11.318857
 H   14.696402    0.697049   12.739837
 H   13.262112   -1.221607   13.371357
 H   14.856981   -1.351721   14.118500
 H   13.966727   -2.779653   11.578389
 H   16.153353   -3.930116   11.734986
 H   16.570240   -2.964012   13.151215
 H   17.603412   -1.999932   11.123358
 H   16.021757   -1.879564   10.345560
 H   14.526377   -3.869062   14.376140
 H   12.933336   -3.720910   13.631811
 H   14.122751   -4.836796   12.957959
 H   22.528665   -0.322623   20.689946
 H   23.553037   -4.413061   20.040819
 H   25.147795   -5.298726   21.676704
 H   24.320539   -1.982015   24.243050
 H   22.724004   -1.098839   22.606199
 H   25.759834   -6.127987   23.806331
 H   27.087455   -5.223679   23.022412
 H   27.030358   -5.368736   24.796170
