46 
4jpe_ligand_xtb.xyz
 C    2.365090   -0.220491   -0.324742
 C    2.473052   -1.577990   -0.620593
 C    1.340494   -2.361625   -0.693404
 C    0.071914   -1.826213   -0.497660
 C   -0.042270   -0.466937   -0.215730
 C    1.099502    0.317069   -0.121531
 C   -1.137496   -2.706654   -0.577929
 C   -2.276875   -2.193701    0.308817
 C   -2.579919   -0.755654   -0.120393
 C   -1.386361    0.200228    0.004062
 C    3.553732    0.627545   -0.229848
 C   -1.532904    1.322664   -1.035843
 N   -1.470089    2.498044   -0.360063
 C   -1.330321    2.300384    1.030961
 N   -1.408850    0.959874    1.235230
 O   -1.678785    1.189993   -2.225801
 C   -1.552116    3.788717   -0.992882
 N   -1.180780    3.147720    1.950488
 C    4.652332    0.479287   -1.080440
 N    5.728635    1.239212   -0.992923
 C    5.724654    2.175558   -0.061297
 N    4.748172    2.419324    0.793933
 C    3.678074    1.649472    0.715064
 C   -1.873065   -2.263949    1.782884
 C   -3.526846   -3.048126    0.089048
 H    3.446800   -2.021651   -0.764416
 H    1.435678   -3.416852   -0.905327
 H    1.005481    1.371369    0.097396
 H   -1.480784   -2.735356   -1.616849
 H   -0.866661   -3.725855   -0.294345
 H   -3.403929   -0.348850    0.469277
 H   -2.885228   -0.763499   -1.170051
 H   -1.133389    0.571448    2.119573
 H   -1.688968    3.618915   -2.059853
 H   -2.400587    4.353012   -0.600499
 H   -0.632690    4.356072   -0.830380
 H   -1.178361    4.114779    1.652607
 H    4.658994   -0.264089   -1.867829
 H    6.604033    2.802231    0.007465
 H    2.899252    1.845998    1.441879
 H   -1.780314   -3.302048    2.095332
 H   -2.625063   -1.786320    2.406746
 H   -0.915510   -1.777440    1.952077
 H   -4.339948   -2.701686    0.722663
 H   -3.323926   -4.088761    0.331842
 H   -3.853954   -2.995566   -0.946814
