52 
4jq7_ligand_ani-2x.xyz
 C    0.651803    1.738650    0.014717
 C    1.519034    0.586964    0.085730
 N   -1.134397    3.305659   -0.107653
 C   -0.202099    4.253426   -0.256770
 C   -0.727763    2.036875    0.015228
 C    1.477988    2.839743   -0.159872
 C    2.795249    1.090427   -0.004853
 C   -4.334911   -0.801992    0.490765
 C   -4.954936   -1.980560    0.086758
 C   -5.063380   -2.295022   -1.265187
 C   -4.546630   -1.421642   -2.217326
 C   -3.924948   -0.244406   -1.811550
 C   -3.810306    0.077946   -0.457628
 C   -3.084371    1.351937   -0.069795
 C   -3.682514    2.075306    1.150225
 O   -3.399280    1.426656    2.369941
 N   -1.666604    1.070148    0.153076
 N    1.118526    4.106929   -0.296033
 O    2.763712    2.448371   -0.184001
 C    4.125768    0.499741    0.093825
 C    5.235224    1.194234   -0.408048
 C    6.502081    0.633784   -0.330880
 C    6.681869   -0.614676    0.260736
 C    5.587354   -1.298775    0.781015
 C    4.315714   -0.744242    0.703254
 C    1.114836   -0.830304    0.129542
 C    0.365589   -1.325332    1.199298
 C   -0.024761   -2.660060    1.237453
 C    0.334270   -3.520385    0.204856
 C    1.090657   -3.040415   -0.860757
 C    1.483664   -1.707751   -0.896690
 H   -0.575099    5.271759   -0.362752
 H   -4.267060   -0.556754    1.548498
 H   -5.359810   -2.656517    0.835800
 H   -5.549900   -3.216980   -1.574314
 H   -4.626706   -1.655745   -3.276342
 H   -3.518357    0.437416   -2.556423
 H   -3.145152    2.055989   -0.908188
 H   -4.772756    2.108573    1.045583
 H   -3.297908    3.103923    1.153668
 H   -2.442881    1.274067    2.363893
 H   -1.344109    0.115151    0.043389
 H    5.092395    2.175099   -0.855339
 H    7.356892    1.174514   -0.731071
 H    7.676013   -1.050166    0.320249
 H    5.725172   -2.268902    1.250779
 H    3.464186   -1.270984    1.128402
 H    0.098142   -0.655221    2.013797
 H   -0.608424   -3.026605    2.076903
 H    0.028973   -4.562979    0.231096
 H    1.378655   -3.707527   -1.668380
 H    2.081396   -1.339846   -1.728823
