81 
4jql_ligand_ani-2x.xyz
 C    1.475286   -3.248059   -0.872848
 N    1.512028   -2.532833    0.298702
 O    2.155401   -2.993637   -1.850677
 C    0.441508   -4.352857   -0.847571
 N   -2.753734   -0.927985    3.889780
 O   -2.511762   -3.030805    0.591745
 C   -0.681295   -4.210251   -1.555835
 N   -2.665434   -4.127551    2.530478
 O   -2.505649   -0.423977    1.738718
 C   -1.106736   -2.963250   -2.288693
 O   -4.324174   -1.617757    2.391533
 C   -2.271764   -2.210374   -1.615389
 O   -1.464099    3.946291   -0.933890
 C   -2.045833   -1.877146   -0.143648
 O    1.548138    4.397293   -0.497456
 C   -2.842211   -0.655326    0.353343
 O   -0.785460   -2.932157    2.057004
 C   -2.523528    0.629088   -0.378422
 O    4.866243    0.905463   -0.544331
 C   -1.254494    0.914405   -0.698221
 O    1.230655    3.061152    2.159006
 C   -0.774777    1.816351   -1.803142
 C   -0.315480    3.215061   -1.337876
 C    0.785496    3.224283   -0.261824
 C    0.222630    3.198542    1.172495
 C   -1.353192    5.341516   -1.125044
 C    1.404121    1.762776    2.702291
 C    2.070751    0.797892    1.745234
 C    3.246438    1.172611    1.105226
 C    3.783326    0.377712    0.090810
 C    3.208522   -0.846426   -0.243331
 C    2.094658   -1.267640    0.480256
 C    1.520044   -0.445016    1.457277
 C    0.716320   -5.550866    0.022465
 C   -1.903658   -3.316294    1.754388
 C   -3.295060   -1.025546    2.649340
 C   -3.683285    1.555082   -0.614547
 C    0.328512    1.106716   -2.601238
 C    2.908919    4.306671   -0.131429
 C    5.503413    0.096173   -1.504509
 H    0.813752   -2.758808    1.005988
 H   -1.984608   -0.299349    4.046006
 H   -3.332022   -1.205096    4.664384
 H   -1.408616   -5.026053   -1.535623
 H   -2.341216   -4.184501    3.483249
 H   -3.664357   -4.040929    2.411147
 H   -1.425135   -3.240405   -3.301191
 H   -0.244690   -2.291576   -2.400484
 H   -3.181696   -2.816921   -1.662482
 H   -2.463178   -1.290561   -2.180178
 H   -0.986174   -1.725924    0.082006
 H   -3.911327   -0.878031    0.297329
 H   -0.445178    0.476109   -0.101306
 H   -1.614464    2.013927   -2.482188
 H    0.122888    3.710750   -2.215694
 H    1.428991    2.347230   -0.413700
 H   -0.266292    4.162128    1.354392
 H   -0.535010    2.408277    1.265676
 H   -1.225697    5.582646   -2.191035
 H   -2.289898    5.783608   -0.775282
 H   -0.514181    5.771637   -0.563341
 H    0.440069    1.353660    3.044969
 H    2.029133    1.918140    3.589702
 H    3.747428    2.101608    1.353136
 H    3.601721   -1.477991   -1.028766
 H    0.618898   -0.780579    1.964115
 H   -0.095175   -6.283428   -0.061211
 H    1.656246   -6.040592   -0.259153
 H    0.805121   -5.256539    1.076594
 H   -4.112337    1.862903    0.347035
 H   -3.378694    2.455463   -1.150009
 H   -4.474254    1.046855   -1.177104
 H    1.164660    0.805778   -1.957274
 H    0.716526    1.749520   -3.398252
 H   -0.063389    0.193793   -3.062718
 H    3.022616    4.257226    0.959189
 H    3.393061    3.428324   -0.588520
 H    3.397923    5.210818   -0.505882
 H    6.364701    0.662185   -1.861489
 H    5.840024   -0.852933   -1.066464
 H    4.832547   -0.122094   -2.345839
