70 
4jr0_ligand_aiqm1.xyz
 C    5.823550    0.694830   -0.573017
 O    5.294371    0.913504   -1.652302
 C    7.232216    1.127894   -0.254120
 N    5.164155    0.035695    0.419328
 C    3.741991   -0.196748    0.277017
 C    2.949885    1.106848    0.507472
 O    3.179556    1.828202    1.466579
 C    3.269044   -1.233397    1.299809
 C    1.807652   -1.543696    1.087365
 O    1.117747   -1.645742    2.215871
 O    1.315417   -1.655986   -0.015578
 N    1.965753    1.318856   -0.388446
 C    1.083731    2.473414   -0.317381
 C   -0.387926    2.099106   -0.535471
 O   -1.219062    2.961771   -0.782711
 C    1.512213    3.628507   -1.229735
 C    1.529367    3.299647   -2.731798
 C    2.573257    2.261318   -3.054672
 O    2.334885    1.089788   -3.256461
 O    3.811238    2.762032   -3.031908
 N   -0.692746    0.794268   -0.386787
 C   -2.045186    0.306363   -0.485412
 C   -2.347894   -0.606708    0.698026
 O   -1.475469   -1.173796    1.350753
 C   -2.339989   -0.396307   -1.833115
 C   -1.607839   -1.727354   -1.987217
 C   -1.997304    0.539129   -2.990317
 C   -3.785790   -1.291366    3.374290
 N   -3.658556   -0.739422    0.966671
 O   -4.560746   -2.151621    4.209105
 C   -4.219367   -1.652399    1.954597
 C   -3.878176   -3.107378    1.625849
 C   -4.403847   -3.525237    0.281636
 O   -5.201734   -2.912846   -0.384218
 O   -3.876514   -4.698285   -0.117288
 C   -4.040893    0.165148    3.715194
 H    7.849180    1.012632   -1.141461
 H    7.657168    0.556699    0.570831
 H    7.221936    2.184398    0.014205
 H    5.516705    0.134911    1.357102
 H    3.566191   -0.568746   -0.726185
 H    3.428543   -0.863201    2.312793
 H    3.842566   -2.153969    1.163076
 H    0.173929   -1.697090    1.970967
 H    1.965503    0.763290   -1.234067
 H    1.146303    2.829801    0.713987
 H    2.500978    3.969775   -0.916705
 H    0.804861    4.439854   -1.067090
 H    0.553389    2.926286   -3.043845
 H    1.756751    4.209570   -3.286896
 H    4.433801    2.017087   -2.992800
 H    0.034946    0.121253   -0.209438
 H   -2.704796    1.172955   -0.421443
 H   -3.419780   -0.588856   -1.842576
 H   -1.824407   -2.147176   -2.970473
 H   -1.914369   -2.460031   -1.234677
 H   -0.528472   -1.594337   -1.911816
 H   -0.915732    0.613410   -3.104830
 H   -2.390902    1.543357   -2.828537
 H   -2.402609    0.147362   -3.923526
 H   -2.722709   -1.511299    3.493468
 H   -4.303097   -0.310386    0.326360
 H   -4.287986   -2.014930    5.117027
 H   -5.301967   -1.535468    1.902822
 H   -4.314089   -3.770044    2.376484
 H   -2.798921   -3.260118    1.644382
 H   -4.280439   -4.901209   -0.971306
 H   -3.803328    0.347751    4.764165
 H   -3.416815    0.819584    3.108538
 H   -5.089119    0.418951    3.549259
