70 
4jr0_ligand_xtb.xyz
 C    6.016950    0.779153   -0.567858
 O    5.670564    0.962215   -1.721770
 C    7.386517    1.143750   -0.050275
 N    5.217615    0.198149    0.355047
 C    3.818840   -0.055936    0.098586
 C    2.993358    1.203207    0.436479
 O    3.292467    1.936519    1.355169
 C    3.307224   -1.215263    0.969661
 C    1.807721   -1.334619    0.787257
 O    1.138520   -1.330160    1.913610
 O    1.280027   -1.372259   -0.302297
 N    1.915782    1.356655   -0.351382
 C    1.018017    2.481615   -0.249279
 C   -0.457107    2.087288   -0.395555
 O   -1.322232    2.941805   -0.430330
 C    1.374024    3.602832   -1.243201
 C    1.474721    3.113469   -2.692542
 C    2.633790    2.151428   -2.862501
 O    2.500709    0.989512   -3.169091
 O    3.799400    2.712414   -2.600724
 N   -0.722848    0.771580   -0.460184
 C   -2.077358    0.282579   -0.514982
 C   -2.375675   -0.570871    0.715561
 O   -1.501151   -1.079639    1.405741
 C   -2.358557   -0.522122   -1.809090
 C   -1.639594   -1.868842   -1.814713
 C   -1.954482    0.306804   -3.026081
 C   -3.743804   -1.309198    3.386017
 N   -3.684707   -0.692745    0.978844
 O   -4.468760   -2.182111    4.232106
 C   -4.244660   -1.606265    1.960084
 C   -3.946818   -3.059969    1.577421
 C   -4.506557   -3.397703    0.221392
 O   -5.069556   -2.628928   -0.514664
 O   -4.298998   -4.676739   -0.097120
 C   -3.973766    0.153074    3.759967
 H    8.032245    1.398635   -0.885395
 H    7.819322    0.319814    0.511142
 H    7.299764    2.008681    0.604930
 H    5.475364    0.277627    1.327629
 H    3.713023   -0.300167   -0.963340
 H    3.517959   -1.021790    2.022020
 H    3.787790   -2.146006    0.663674
 H    0.154176   -1.303342    1.754914
 H    1.806188    0.743648   -1.147652
 H    1.135468    2.886101    0.765206
 H    2.327069    4.045095   -0.950326
 H    0.592383    4.360008   -1.171409
 H    0.552080    2.618483   -2.997757
 H    1.649579    3.974485   -3.338795
 H    4.526479    2.045837   -2.553857
 H    0.000732    0.065290   -0.419747
 H   -2.719694    1.171897   -0.500673
 H   -3.438298   -0.706969   -1.846930
 H   -1.837584   -2.384148   -2.751560
 H   -1.989136   -2.499993   -1.000151
 H   -0.565424   -1.743844   -1.715189
 H   -0.871701    0.387016   -3.086666
 H   -2.376453    1.307607   -2.968323
 H   -2.311022   -0.168065   -3.936479
 H   -2.670405   -1.538028    3.443711
 H   -4.333922   -0.351331    0.287494
 H   -4.261185   -1.961758    5.146280
 H   -5.328137   -1.457555    1.953957
 H   -4.372868   -3.729999    2.324507
 H   -2.867542   -3.226421    1.559243
 H   -4.658928   -4.875810   -0.976307
 H   -3.630799    0.336974    4.776385
 H   -3.422685    0.805306    3.089486
 H   -5.033256    0.392141    3.700074
