59 
4jr3_ligand_ani-2x.xyz
 C   -3.787466   -3.073632   -1.849995
 C   -2.567171   -2.317826   -1.361142
 O   -2.259748   -1.216094   -1.781873
 N   -1.831813   -2.994671   -0.416487
 C   -0.659429   -2.546817    0.219702
 C    0.098270   -1.501098   -0.296940
 C   -0.244279   -3.181535    1.393460
 C    0.887032   -2.729244    2.061529
 C    1.601830   -1.635692    1.586673
 C    1.181717   -0.989305    0.422147
 C    1.831173    0.245968   -0.036600
 C    1.166680    1.493633   -0.354222
 C    3.177055    0.492694   -0.194767
 C    4.403879   -0.295938   -0.085388
 C    5.630593    0.363688    0.081666
 C    6.807166   -0.362183    0.201088
 C    6.784351   -1.753512    0.136411
 C    5.575293   -2.414346   -0.053613
 C    4.393495   -1.691268   -0.167146
 O    3.375373    1.795765   -0.563048
 C    2.177317    2.390714   -0.672812
 N    2.057208    3.659581   -1.030131
 C    0.788395    4.055256   -1.024672
 N   -0.293143    3.345319   -0.690956
 C   -0.132572    2.061315   -0.342111
 N   -1.237731    1.383306    0.052480
 C   -2.558679    2.005954    0.072756
 C   -2.684966    2.982743    1.261918
 O   -2.371596    2.381984    2.496135
 C   -3.637391    0.941542    0.084549
 C   -3.622042   -0.089725    1.024790
 C   -4.639348   -1.038264    1.053070
 C   -5.695924   -0.960000    0.147108
 C   -5.726339    0.071652   -0.785548
 C   -4.700922    1.011901   -0.816991
 H   -3.489483   -3.935169   -2.456404
 H   -4.383403   -2.398722   -2.465164
 H   -4.394248   -3.440941   -1.015390
 H   -2.219237   -3.853144   -0.056537
 H   -0.169686   -1.080570   -1.260128
 H   -0.805158   -4.026325    1.787505
 H    1.210452   -3.231277    2.968477
 H    2.487612   -1.284300    2.111664
 H    5.652768    1.450016    0.116135
 H    7.750560    0.160898    0.340834
 H    7.708085   -2.318702    0.228194
 H    5.549143   -3.498719   -0.114948
 H    3.457710   -2.218200   -0.328257
 H    0.606416    5.089364   -1.316932
 H   -1.210188    0.371787    0.074227
 H   -2.650098    2.607863   -0.840157
 H   -3.722538    3.325681    1.332534
 H   -2.043601    3.851484    1.058873
 H   -1.455349    2.077878    2.423167
 H   -2.823744   -0.146272    1.762289
 H   -4.598764   -1.853483    1.772953
 H   -6.492861   -1.701278    0.170059
 H   -6.548750    0.143238   -1.493869
 H   -4.728345    1.807741   -1.559715
