58 
4ju6_ligand_aiqm1.xyz
 C  -27.104954   48.979948   55.471300
 C  -27.316337   49.352943   54.008006
 C  -27.727773   50.815146   53.847427
 C  -26.689191   51.722990   54.504198
 C  -26.480790   51.363141   55.970806
 C  -26.056771   49.895160   56.104677
 C  -25.883806   49.562172   57.574098
 O  -26.843559   49.326908   58.288150
 C  -24.422882   49.256372   59.522639
 N  -24.603247   49.573918   58.089993
 C  -23.493226   50.007005   57.318984
 C  -22.765016   49.112885   56.517845
 C  -21.674545   49.574312   55.778900
 C  -21.304972   50.912881   55.830743
 C  -22.010684   51.806195   56.633700
 C  -23.094438   51.348203   57.368545
 C  -23.165361   47.673932   56.395971
 O  -22.156481   46.784171   56.526231
 O  -24.282951   47.294790   56.194544
 O  -20.199808   51.287585   55.110784
 C  -20.248546   52.491921   54.432519
 C  -19.056301   53.202316   54.339730
 C  -19.025651   54.388242   53.613334
 C  -20.178296   54.867189   52.995080
 C  -21.363796   54.145983   53.099016
 C  -21.410541   52.952087   53.815853
 C  -27.929838   51.179946   52.381408
 C  -23.177460   48.406905   59.738310
 C  -24.385473   50.521749   60.375429
 H  -26.781218   47.940592   55.561677
 H  -28.037544   49.082160   56.029769
 H  -28.069723   48.702860   53.555670
 H  -26.382750   49.189408   53.454247
 H  -28.677701   50.958818   54.375915
 H  -26.992317   52.769820   54.407404
 H  -25.737473   51.615701   53.965927
 H  -27.410628   51.511003   56.527287
 H  -25.725016   52.015488   56.424411
 H  -25.118659   49.763178   55.565655
 H  -25.309050   48.681790   59.784079
 H  -21.107565   48.914587   55.132170
 H  -21.714187   52.846059   56.663508
 H  -23.658152   52.029038   57.991936
 H  -21.339673   47.256035   56.716327
 H  -18.172706   52.807522   54.822198
 H  -18.097434   54.937525   53.537726
 H  -20.152583   55.791394   52.436134
 H  -22.260148   54.511643   52.617230
 H  -22.329709   52.385318   53.899133
 H  -28.242263   52.220620   52.270880
 H  -26.996779   51.046739   51.825446
 H  -28.688951   50.546579   51.919374
 H  -23.227728   47.469748   59.178882
 H  -22.281027   48.953078   59.428975
 H  -23.080316   48.166427   60.797439
 H  -23.493549   51.118841   60.158896
 H  -25.272157   51.131363   60.197540
 H  -24.360101   50.252673   61.432846
