38 
4jv6_ligand_aiqm1.xyz
 C   19.211188  -16.516235   16.128792
 C   19.706717  -15.416287   16.823154
 C   20.721067  -14.640616   16.269523
 C   21.233260  -14.974105   15.020300
 C   20.740269  -16.077462   14.323493
 C   19.721446  -16.862215   14.873629
 C   19.153547  -18.075142   14.168234
 N   19.291852  -18.049994   12.722002
 C   20.379922  -18.549242   12.037268
 C   21.621550  -19.013784   12.478096
 C   22.507559  -19.439383   11.497395
 C   22.165987  -19.400779   10.133155
 C   20.931491  -18.935489    9.707254
 C   20.024926  -18.503429   10.681727
 N   18.746068  -17.998285   10.540700
 C   18.342787  -17.735145   11.762819
 C   17.020116  -17.177092   12.081417
 C   15.920234  -17.593184   11.324017
 C   14.656468  -17.081047   11.583394
 C   14.476486  -16.137817   12.594978
 C   15.571416  -15.703491   13.336959
 C   16.840084  -16.218269   13.084283
 H   18.413847  -17.108773   16.562817
 H   19.294996  -15.165832   17.791844
 H   21.104148  -13.782554   16.804702
 H   22.018438  -14.373497   14.580468
 H   21.143232  -16.319096   13.349394
 H   18.098378  -18.179089   14.411412
 H   19.655829  -18.977803   14.526313
 H   21.883781  -19.028625   13.528411
 H   23.483428  -19.804631   11.789266
 H   22.886388  -19.740007    9.401229
 H   20.669266  -18.900767    8.659445
 H   16.075512  -18.306461   10.526298
 H   13.811814  -17.409139   10.991896
 H   13.491976  -15.735486   12.794370
 H   15.443171  -14.957275   14.109313
 H   17.689653  -15.853474   13.644334
