38 
4jv6_ligand_dft.xyz
 C    0.825931    3.171836    1.160532
 C    1.213983    4.322611    0.485616
 C    1.519849    4.265166   -0.873043
 C    1.434176    3.051773   -1.545946
 C    1.044281    1.897716   -0.868597
 C    0.736522    1.950139    0.488994
 C    0.292793    0.723030    1.264156
 N    0.335105   -0.509972    0.509264
 C    1.475194   -1.270053    0.328077
 C    2.811661   -1.030639    0.643532
 C    3.713912   -2.032980    0.318261
 C    3.296287   -3.224958   -0.302426
 C    1.964970   -3.448358   -0.617051
 C    1.039261   -2.451926   -0.293950
 N   -0.327372   -2.410544   -0.492734
 C   -0.709466   -1.251817   -0.014600
 C   -2.109988   -0.794111   -0.029556
 C   -3.117922   -1.740164    0.185298
 C   -4.453290   -1.359990    0.158582
 C   -4.799074   -0.032525   -0.086959
 C   -3.802231    0.910011   -0.318915
 C   -2.462975    0.533170   -0.295289
 H    0.588588    3.221075    2.221192
 H    1.278980    5.265932    1.019717
 H    1.824419    5.163212   -1.401810
 H    1.672992    2.996672   -2.603763
 H    0.984154    0.951788   -1.398504
 H   -0.727884    0.859539    1.632935
 H    0.931096    0.593659    2.146450
 H    3.135698   -0.102217    1.104014
 H    4.767105   -1.891722    0.541318
 H    4.037144   -3.981754   -0.541887
 H    1.637275   -4.363511   -1.099053
 H   -2.834338   -2.771587    0.366401
 H   -5.227615   -2.101571    0.330304
 H   -5.843582    0.263991   -0.105666
 H   -4.064800    1.942012   -0.530988
 H   -1.696613    1.270503   -0.516667
