37 
4jv8_ligand_dft.xyz
 C    0.049743    1.909709    0.998051
 C   -0.323885    2.999890    1.778349
 C   -1.226445    3.920558    1.262477
 C   -1.722415    3.709406   -0.021451
 N   -1.373276    2.671303   -0.779383
 C   -0.502882    1.791773   -0.272604
 C   -0.193980    0.636027   -1.230066
 N    0.692041   -0.345951   -0.656994
 C    2.060919   -0.284647   -0.491793
 C    3.027177    0.600512   -0.962596
 C    4.338438    0.346722   -0.584473
 C    4.666865   -0.748490    0.234181
 C    3.694966   -1.618422    0.705545
 C    2.366634   -1.379239    0.343414
 N    1.215529   -2.067502    0.688598
 C    0.250652   -1.417146    0.089083
 C   -1.179355   -1.683865    0.113783
 C   -1.741707   -2.638957    0.960271
 C   -3.108880   -2.870801    0.943095
 C   -3.916417   -2.138778    0.070934
 C   -3.369443   -1.185311   -0.776901
 C   -1.992325   -0.946869   -0.766121
 N   -1.403218   -0.047665   -1.660811
 H    0.753561    1.173105    1.369346
 H    0.086788    3.124438    2.775639
 H   -1.543946    4.784259    1.836762
 H   -2.432546    4.406050   -0.461401
 H    0.282855    1.055066   -2.122514
 H    2.772266    1.449713   -1.589420
 H    5.126812    1.009859   -0.927107
 H    5.706103   -0.912019    0.502718
 H    3.943784   -2.461537    1.341535
 H   -1.082032   -3.191212    1.621870
 H   -3.545696   -3.613681    1.602164
 H   -4.988733   -2.310367    0.052276
 H   -4.005884   -0.620357   -1.452744
 H   -2.056817    0.622965   -2.048068
