37 
4jv8_ligand_xtb.xyz
 C    1.525605   -0.585323   -1.081394
 C    2.601437   -0.877628   -1.903399
 C    3.855678   -1.037599   -1.335731
 C    3.974532   -0.900215    0.038845
 N    2.954125   -0.620834    0.829683
 C    1.755956   -0.461136    0.283868
 C    0.625103   -0.194865    1.271906
 N   -0.358871    0.689932    0.722646
 C   -0.295348    2.049999    0.570160
 C    0.631212    2.999278    0.965825
 C    0.358656    4.312511    0.636056
 C   -0.795514    4.666601   -0.065670
 C   -1.719019    3.725010   -0.468689
 C   -1.466899    2.394977   -0.150758
 N   -2.187302    1.264986   -0.430079
 C   -1.508461    0.277169    0.088723
 C   -1.825065   -1.128691    0.077952
 C   -2.880107   -1.652040   -0.660188
 C   -3.146515   -3.006886   -0.625517
 C   -2.358579   -3.844066    0.151912
 C   -1.304354   -3.337879    0.888741
 C   -1.019417   -1.975860    0.860610
 N   -0.027698   -1.433317    1.653504
 H    0.535207   -0.452784   -1.489273
 H    2.461013   -0.977630   -2.969666
 H    4.718576   -1.262487   -1.942522
 H    4.928278   -1.016577    0.536559
 H    1.066186    0.249973    2.176966
 H    1.526551    2.724805    1.503824
 H    1.054908    5.085425    0.926210
 H   -0.963157    5.707991   -0.298317
 H   -2.609048    3.997039   -1.012769
 H   -3.475955   -0.971886   -1.247774
 H   -3.965823   -3.413612   -1.197857
 H   -2.564904   -4.903809    0.181906
 H   -0.695209   -3.993698    1.494741
 H    0.594022   -2.096873    2.092565
