76 
4jvq_ligand_aiqm1.xyz
 C  -22.904259   49.067464   56.282819
 C  -21.855756   49.502967   55.475848
 C  -21.469772   50.839075   55.479170
 C  -22.121568   51.755346   56.303240
 C  -23.160709   51.315163   57.114208
 C  -23.571389   49.978634   57.117850
 O  -20.431477   51.158960   54.646168
 C  -20.083677   52.495889   54.563313
 C  -19.014350   52.971542   55.310795
 C  -18.626778   54.298808   55.176796
 C  -19.304429   55.160566   54.308961
 C  -20.384736   54.674328   53.562958
 C  -20.765108   53.342241   53.697230
 C  -23.322852   47.630332   56.211651
 O  -22.315039   46.732753   56.299207
 O  -24.453128   47.256501   56.086421
 N  -24.622442   49.563175   57.977235
 C  -24.335659   49.269752   59.396963
 C  -23.072718   48.430273   59.536172
 C  -24.245258   50.548769   60.225496
 C  -25.939430   49.549128   57.563627
 C  -26.232061   49.857626   56.107928
 O  -26.839690   49.329802   58.356770
 C  -27.321322   48.923361   55.578829
 C  -27.666475   49.274411   54.135780
 C  -28.110408   50.729122   53.996785
 C  -27.026264   51.656198   54.543536
 C  -26.680386   51.319997   55.989784
 C  -28.452546   51.072886   52.551855
 N  -18.866879   56.494614   54.255348
 C  -19.248000   57.484081   53.381571
 O  -20.066715   57.312713   52.496197
 C  -18.565628   58.791548   53.581782
 C  -17.982104   59.196079   54.787785
 C  -17.373230   60.433153   54.895863
 C  -17.330241   61.296156   53.793339
 C  -17.922775   60.911877   52.587053
 C  -18.540861   59.668461   52.501253
 O  -16.699990   62.477372   54.001724
 C  -16.653860   63.385321   52.912260
 H  -21.341287   48.827483   54.803289
 H  -21.824221   52.794066   56.306044
 H  -23.677425   52.013727   57.758434
 H  -18.491946   52.304869   55.982119
 H  -17.788607   54.666248   55.758199
 H  -20.912520   55.325508   52.885031
 H  -21.596229   52.946041   53.128661
 H  -21.484096   47.200718   56.427285
 H  -25.196321   48.694716   59.732412
 H  -23.156771   47.485109   58.994470
 H  -22.203635   48.976568   59.156812
 H  -22.899779   48.205148   60.589181
 H  -23.376684   51.148589   59.933833
 H  -25.147520   51.149102   60.104065
 H  -24.139467   50.296931   61.282416
 H  -25.339897   49.725856   55.495849
 H  -28.202540   49.024153   56.215784
 H  -26.980157   47.888214   55.653448
 H  -28.448328   48.608835   53.760236
 H  -26.783980   49.115711   53.502742
 H  -29.009237   50.867913   54.609599
 H  -27.348003   52.698627   54.461186
 H  -26.127950   51.550327   53.921470
 H  -25.891282   51.984855   56.361447
 H  -27.556301   51.469886   56.627695
 H  -27.573325   50.944650   51.913329
 H  -29.242715   50.424353   52.169254
 H  -28.787748   52.108151   52.459199
 H  -18.092608   56.718193   54.852923
 H  -18.031229   58.568053   55.671219
 H  -16.929686   60.759386   55.826526
 H  -17.918253   61.565615   51.727214
 H  -19.022467   59.358004   51.584336
 H  -16.119054   62.954661   52.063248
 H  -17.658611   63.677257   52.600528
 H  -16.117951   64.256335   53.275643
