76 
4jvq_ligand_xtb.xyz
 C  -22.842786   49.025292   56.494891
 C  -21.672988   49.516949   55.929858
 C  -21.276471   50.834801   56.140237
 C  -22.057832   51.659479   56.945852
 C  -23.219152   51.169629   57.509624
 C  -23.638015   49.859888   57.293809
 O  -20.092499   51.208987   55.586318
 C  -19.842164   52.535996   55.304495
 C  -18.546632   52.997562   55.504885
 C  -18.219623   54.295444   55.172366
 C  -19.178140   55.157238   54.638579
 C  -20.472035   54.684768   54.430987
 C  -20.797875   53.383114   54.756831
 C  -23.271068   47.627091   56.178743
 O  -22.283374   46.711368   56.196234
 O  -24.393878   47.315836   55.903806
 N  -24.806682   49.383824   57.928011
 C  -24.678726   48.861375   59.289721
 C  -23.639815   47.747423   59.371006
 C  -24.366730   49.974459   60.288930
 C  -26.048899   49.438678   57.362079
 C  -26.125096   50.020977   55.963598
 O  -27.035917   49.084651   57.972025
 C  -27.077138   49.177229   55.114878
 C  -27.259001   49.792913   53.732784
 C  -27.785379   51.224980   53.830139
 C  -26.822682   52.062165   54.672236
 C  -26.645202   51.459565   56.061745
 C  -27.970614   51.837100   52.444398
 N  -18.788684   56.460957   54.337003
 C  -19.525263   57.471888   53.777497
 O  -20.679286   57.354989   53.419276
 C  -18.773114   58.745988   53.618837
 C  -17.740713   59.150051   54.466051
 C  -17.106361   60.355106   54.265632
 C  -17.478965   61.192297   53.209573
 C  -18.519781   60.801300   52.370928
 C  -19.158483   59.596257   52.587378
 O  -16.778787   62.347190   53.098406
 C  -17.115463   63.248574   52.069539
 H  -21.063551   48.902681   55.281757
 H  -21.752190   52.678055   57.132116
 H  -23.823720   51.816209   58.126162
 H  -17.807309   52.328026   55.915290
 H  -17.209809   54.647334   55.330045
 H  -21.214287   55.338673   54.005849
 H  -21.798695   53.020474   54.574709
 H  -21.431089   47.093023   56.446085
 H  -25.669206   48.450162   59.512417
 H  -23.861999   46.965924   58.649280
 H  -22.637870   48.134350   59.187716
 H  -23.659607   47.308806   60.365250
 H  -23.371530   50.382388   60.120881
 H  -25.100085   50.772595   60.203982
 H  -24.409169   49.577049   61.299564
 H  -25.136853   50.024996   55.497535
 H  -28.037484   49.113147   55.628878
 H  -26.670074   48.168858   55.029503
 H  -27.953445   49.183471   53.150949
 H  -26.300127   49.797361   53.207757
 H  -28.757071   51.203257   54.335950
 H  -27.200104   53.083561   54.762105
 H  -25.852490   52.107985   54.170063
 H  -25.947917   52.068955   56.643269
 H  -27.602978   51.448861   56.585925
 H  -27.020758   51.873033   51.914382
 H  -28.668255   51.245689   51.855728
 H  -28.358514   52.850735   52.520597
 H  -17.816892   56.662230   54.525975
 H  -17.448483   58.546428   55.313932
 H  -16.313725   60.682780   54.919570
 H  -18.841586   61.427446   51.554220
 H  -19.973527   59.290499   51.949025
 H  -16.977430   62.799117   51.081268
 H  -18.145821   63.603462   52.168840
 H  -16.432839   64.089300   52.180938
