29 
4jx9_ligand_aiqm1.xyz
 N   -1.224737    0.168651    0.302918
 C   -2.387841   -0.519482    0.026550
 N   -3.484018    0.266105   -0.201328
 C   -3.543144    1.667872   -0.253573
 C   -2.259228    2.299854   -0.015062
 C   -1.170925    1.542704    0.251458
 O   -2.430469   -1.742783   -0.020298
 O   -4.595094    2.224873   -0.486763
 C   -0.040511   -0.650531    0.641109
 C    0.545831   -1.385749   -0.574326
 C    2.039583   -1.388734   -0.266331
 C    2.234038   -0.112905    0.550331
 O    0.083265   -2.707803   -0.703621
 O    2.391691   -2.480352    0.559177
 O    0.961442    0.180842    1.155398
 C    2.708734    1.082889   -0.244137
 O    1.799475    1.310982   -1.315793
 H   -4.341805   -0.228080   -0.396561
 H   -2.201743    3.375228   -0.054379
 H   -0.192302    1.960788    0.431287
 H   -0.359806   -1.377163    1.393033
 H    0.353945   -0.794751   -1.475191
 H    2.639241   -1.391597   -1.179989
 H    2.943869   -0.287700    1.358903
 H   -0.872862   -2.679859   -0.552709
 H    1.809591   -3.204616    0.309568
 H    2.756969    1.955041    0.413568
 H    3.714061    0.876288   -0.622200
 H    2.122649    2.039988   -1.844140
