29 
4jx9_ligand_ani-2x.xyz
 N   -1.204701    0.163570    0.315773
 C   -2.362490   -0.530353    0.004835
 N   -3.455225    0.254674   -0.243897
 C   -3.516110    1.657316   -0.276200
 C   -2.240045    2.294282    0.027037
 C   -1.159999    1.546948    0.305627
 O   -2.404745   -1.754354   -0.039404
 O   -4.558332    2.220822   -0.536975
 C   -0.033602   -0.648650    0.636982
 C    0.561135   -1.371121   -0.582939
 C    2.054133   -1.393627   -0.251202
 C    2.247935   -0.105421    0.545500
 O    0.082967   -2.684853   -0.709298
 O    2.330993   -2.485102    0.595690
 O    0.980052    0.174534    1.155006
 C    2.681059    1.088984   -0.281491
 O    1.758260    1.271068   -1.339948
 H   -4.308926   -0.243403   -0.463538
 H   -2.205456    3.375744    0.026687
 H   -0.188271    1.961710    0.546521
 H   -0.344380   -1.386234    1.386314
 H    0.377710   -0.780923   -1.490540
 H    2.673908   -1.430463   -1.160263
 H    2.973369   -0.273616    1.347599
 H   -0.878303   -2.655207   -0.530691
 H    1.677654   -3.163645    0.356907
 H    2.720636    1.971293    0.374108
 H    3.696482    0.899052   -0.664269
 H    2.044193    2.026976   -1.867028
