72 
4jze_ligand_aiqm1.xyz
 C   -4.906350   -2.737534    5.064376
 C   -3.998332   -2.132254    3.986017
 C   -2.945023   -3.166889    3.567092
 C   -4.882850   -1.786474    2.779879
 C   -3.341975   -0.849558    4.539717
 C   -2.380392   -1.083495    5.719039
 O   -2.423004   -0.034071    6.660956
 N   -2.651513   -0.126535    3.459359
 C   -2.212257    1.139558    3.574930
 O   -2.354320    1.807465    4.597197
 C   -1.506929    1.718569    2.385601
 C   -0.690784    2.828677    2.601622
 C    0.009132    3.397018    1.547326
 C   -0.086130    2.883596    0.246564
 C   -0.949673    1.794259    0.023466
 C   -1.633764    1.216226    1.094136
 C   -1.130555    1.223739   -1.334530
 O   -0.759728    1.723763   -2.371378
 O   -1.777943    0.041012   -1.328600
 C    0.706082    3.560687   -0.809121
 C    0.525394    4.946406   -0.973322
 C    1.231736    5.640907   -1.928908
 C    2.125939    4.911405   -2.728446
 N    2.318689    3.613378   -2.596356
 C    1.638101    2.947680   -1.640731
 C    1.924039    1.467491   -1.547412
 O    1.706906    0.820721   -0.534233
 N    2.408148    0.959317   -2.709578
 C    2.710997   -0.372183   -3.030124
 C    3.001285   -0.642666   -4.395427
 C    3.317469   -1.908891   -4.808121
 C    3.364052   -2.975126   -3.879105
 C    3.056292   -2.711119   -2.526750
 C    2.739091   -1.396306   -2.108879
 C    3.067229   -3.805203   -1.619481
 C    3.373201   -5.049159   -2.090551
 N    3.696385   -5.323289   -3.387223
 C    3.693100   -4.324192   -4.240086
 N    3.973101   -4.631307   -5.565046
 O    2.801637    5.601783   -3.663365
 C    3.709461    4.863799   -4.476220
 H   -4.357271   -3.032972    5.957979
 H   -5.676485   -2.022661    5.361321
 H   -5.401171   -3.628332    4.671110
 H   -2.284548   -2.795119    2.779163
 H   -3.441378   -4.059666    3.182553
 H   -2.320282   -3.470693    4.407768
 H   -5.558893   -0.963300    3.020988
 H   -5.486970   -2.653058    2.504324
 H   -4.300737   -1.503306    1.901072
 H   -4.134934   -0.189940    4.899766
 H   -1.363561   -1.218105    5.322484
 H   -2.647896   -1.991091    6.258996
 H   -2.362831    0.788590    6.153849
 H   -2.395353   -0.645242    2.637873
 H   -0.618495    3.226797    3.604854
 H    0.655982    4.246331    1.734099
 H   -2.286596    0.379014    0.892580
 H   -1.806771   -0.242562   -2.248661
 H   -0.182292    5.468512   -0.341851
 H    1.116769    6.704462   -2.083818
 H    2.528517    1.654725   -3.430482
 H    2.953822    0.168550   -5.113648
 H    3.498088   -2.095025   -5.859109
 H    2.514342   -1.215945   -1.068048
 H    2.831310   -3.650025   -0.575245
 H    3.381601   -5.904241   -1.427465
 H    4.501302   -3.938694   -6.068804
 H    4.365402   -5.555931   -5.652488
 H    3.178202    4.113324   -5.061470
 H    4.167247    5.595799   -5.133358
 H    4.468033    4.379499   -3.862713
