72 
4jze_ligand_ani-2x.xyz
 C   -5.107353   -2.469214    5.204961
 C   -4.203239   -1.914239    4.094550
 C   -3.473648   -3.079028    3.409773
 C   -5.108322   -1.207971    3.072478
 C   -3.204661   -0.891725    4.692530
 C   -2.232198   -1.466232    5.742664
 O   -1.819787   -0.499109    6.669124
 N   -2.462742   -0.221557    3.625048
 C   -1.895438    0.999969    3.754480
 O   -1.835725    1.587952    4.838575
 C   -1.329185    1.609776    2.516082
 C   -0.481921    2.706950    2.671007
 C    0.092788    3.297381    1.563523
 C   -0.140183    2.816023    0.267163
 C   -1.066195    1.772141    0.112510
 C   -1.623079    1.163952    1.230025
 C   -1.515221    1.307917   -1.245303
 O   -1.425944    1.931035   -2.273555
 O   -2.086508    0.086013   -1.197682
 C    0.585417    3.467232   -0.852521
 C    0.522880    4.871779   -0.938909
 C    1.153616    5.552313   -1.948400
 C    1.895747    4.803490   -2.868874
 N    2.005700    3.493610   -2.794053
 C    1.380281    2.828832   -1.811021
 C    1.643745    1.328631   -1.794513
 O    1.168150    0.606988   -0.934037
 N    2.437454    0.920933   -2.828544
 C    2.860762   -0.382823   -3.141888
 C    3.548524   -0.558537   -4.371880
 C    4.005269   -1.796173   -4.743500
 C    3.808682   -2.913904   -3.897113
 C    3.094182   -2.743990   -2.692660
 C    2.634366   -1.456491   -2.317972
 C    2.848819   -3.894784   -1.897141
 C    3.312922   -5.103953   -2.324649
 N    4.024108   -5.289115   -3.468720
 C    4.286129   -4.235039   -4.206478
 N    5.013569   -4.435924   -5.368980
 O    2.509717    5.484217   -3.851127
 C    3.269502    4.723745   -4.778277
 H   -4.558729   -3.059432    5.946007
 H   -5.629577   -1.661662    5.732653
 H   -5.869061   -3.127071    4.771698
 H   -2.867019   -2.748584    2.557644
 H   -4.200990   -3.803018    3.025726
 H   -2.813309   -3.610803    4.104983
 H   -5.625211   -0.354499    3.527806
 H   -5.868442   -1.903359    2.699891
 H   -4.550417   -0.838349    2.206118
 H   -3.775991   -0.109352    5.210514
 H   -1.373756   -1.919894    5.216545
 H   -2.710125   -2.266144    6.317521
 H   -1.728382    0.345326    6.189594
 H   -2.338428   -0.717789    2.757220
 H   -0.288969    3.080981    3.670920
 H    0.772427    4.134141    1.701360
 H   -2.324022    0.352246    1.055123
 H   -2.342581   -0.116009   -2.112361
 H   -0.064734    5.419524   -0.203880
 H    1.107831    6.631795   -2.049093
 H    2.729659    1.667246   -3.445397
 H    3.709419    0.297345   -5.022472
 H    4.495939   -1.919461   -5.704657
 H    2.099358   -1.318937   -1.387821
 H    2.292754   -3.802500   -0.968727
 H    3.132318   -6.007174   -1.745010
 H    5.687041   -3.713101   -5.581302
 H    5.417150   -5.363803   -5.410999
 H    2.636984    3.997345   -5.298326
 H    3.677350    5.444649   -5.487329
 H    4.080638    4.190175   -4.272746
