69 
4jzf_ligand_ani-2x.xyz
 C   -5.660023   -2.426164   -2.156024
 C   -6.237370   -1.292020   -1.296683
 C   -6.225586    0.016360   -2.103368
 C   -7.700680   -1.612218   -0.958153
 C   -5.426475   -1.099516    0.009421
 C   -5.357429   -2.338223    0.925161
 O   -5.192258   -1.992529    2.273173
 N   -4.079859   -0.617742   -0.296375
 C   -3.318737    0.090773    0.568488
 O   -3.641488    0.249819    1.750337
 C   -2.056239    0.674652    0.030468
 C   -1.754826    0.796384   -1.328698
 C   -0.548593    1.343142   -1.719630
 C    0.408663    1.766520   -0.785386
 C    0.059545    1.718502    0.573713
 C   -1.146931    1.155246    0.961614
 C    0.935913    2.309987    1.640715
 O    1.794522    3.139192    1.471727
 O    0.633310    1.830575    2.863781
 C    1.709689    2.260596   -1.299961
 C    1.679825    3.245495   -2.306477
 C    2.836511    3.767285   -2.825513
 C    4.049326    3.258395   -2.346414
 N    4.111588    2.310572   -1.434606
 C    2.978529    1.805178   -0.924667
 C    3.181707    0.663108    0.060774
 O    2.236458    0.075208    0.560533
 N    4.498542    0.403500    0.309159
 C    5.037566   -0.542204    1.199003
 C    6.410929   -0.498496    1.463556
 C    6.985237   -1.422431    2.328902
 C    6.196372   -2.389370    2.939903
 C    4.826478   -2.417395    2.693687
 C    4.244035   -1.511467    1.806973
 C    4.017367   -3.468447    3.397977
 O    4.521137   -4.479653    3.852308
 N    2.671671   -3.222276    3.479252
 O    5.172922    3.780557   -2.866139
 C    6.403010    3.257411   -2.388541
 H   -5.646332   -3.379834   -1.615202
 H   -4.637241   -2.217042   -2.492663
 H   -6.272383   -2.564585   -3.054111
 H   -6.856896   -0.084935   -2.992951
 H   -5.221293    0.288387   -2.443539
 H   -6.614753    0.850025   -1.506257
 H   -7.819206   -2.573374   -0.447587
 H   -8.141195   -0.833529   -0.323407
 H   -8.293862   -1.662903   -1.878092
 H   -5.909180   -0.313347    0.605921
 H   -4.543117   -2.993977    0.569770
 H   -6.283186   -2.919494    0.862038
 H   -4.617342   -1.205158    2.305478
 H   -3.696585   -0.847249   -1.199451
 H   -2.459307    0.493980   -2.101343
 H   -0.316620    1.405837   -2.779966
 H   -1.396517    1.092091    2.014468
 H    1.237205    2.277586    3.478257
 H    0.716365    3.616889   -2.652179
 H    2.843987    4.538931   -3.588450
 H    5.144869    0.999018   -0.192064
 H    7.029384    0.259191    0.988992
 H    8.053582   -1.386224    2.522006
 H    6.616935   -3.133280    3.609232
 H    3.191721   -1.559360    1.547562
 H    2.150839   -3.861098    4.062183
 H    2.323112   -2.278648    3.408333
 H    6.501188    3.414024   -1.309644
 H    6.479480    2.186247   -2.600105
 H    7.182294    3.803221   -2.921117
