79 
4k19_ligand_dft.xyz
 O   -1.648547    3.181196    1.957854
 C   -2.058214    2.931505    0.823105
 C   -3.010603    1.797902    0.573896
 C   -3.501974    1.124240    1.699792
 C   -4.349311    0.035446    1.579204
 C   -4.737940   -0.410377    0.314836
 C   -4.255404    0.234855   -0.808586
 O   -4.563162   -0.120663   -2.102314
 C   -3.393371    1.334208   -0.687852
 O   -2.942544    1.897683   -1.837727
 N   -1.658794    3.656667   -0.250872
 C   -0.643443    4.688330   -0.152720
 C    0.743144    4.158806    0.245139
 C    1.154839    2.929428   -0.569447
 N    2.312395    2.232137   -0.011493
 C    2.193299    1.303090    0.961793
 O    3.178465    0.763994    1.488450
 C    0.785714    0.952958    1.451893
 C    0.789386    0.096570    2.734049
 C    0.371917    0.848200    3.979386
 O   -0.181704   -0.931144    2.431867
 N    0.030057    0.165645    0.475950
 C   -0.475689   -0.814275    1.127423
 C   -1.391611   -1.809311    0.574666
 C   -1.769190   -1.753703   -0.769502
 O   -1.337625   -0.878209   -1.697301
 C   -2.716322   -2.672144   -1.248985
 O   -3.134626   -2.536665   -2.550338
 C   -3.263428   -3.638160   -0.429093
 C   -2.868708   -3.700105    0.910462
 C   -1.946785   -2.794898    1.404217
 C    3.651313    2.679555   -0.386725
 C    3.953948    2.704503   -1.890082
 C    3.443693    1.509202   -2.710629
 N    3.483911    0.238776   -2.019684
 C    2.348735   -0.477996   -1.822012
 O    1.270168   -0.131216   -2.304263
 C    2.459938   -1.728353   -1.001185
 C    3.470688   -1.970584   -0.068039
 O    4.523373   -1.108632    0.174694
 C    3.470905   -3.150875    0.688429
 O    4.455714   -3.356764    1.590697
 C    2.460436   -4.089870    0.519666
 C    1.453126   -3.849525   -0.410915
 C    1.453648   -2.685972   -1.165782
 H   -3.187338    1.485464    2.672493
 H   -4.710822   -0.475263    2.465164
 H   -5.393597   -1.267451    0.196735
 H   -4.336230   -1.057232   -2.252505
 H   -3.276132    1.327742   -2.553268
 H   -1.969397    3.358718   -1.164799
 H   -0.958196    5.438871    0.578829
 H   -0.598386    5.177211   -1.130918
 H    1.476952    4.964883    0.122713
 H    0.721366    3.905466    1.307961
 H    1.401913    3.216881   -1.595641
 H    0.334618    2.215254   -0.649513
 H    0.236260    1.881580    1.639801
 H    1.753034   -0.401328    2.865653
 H   -0.577543    1.366337    3.812634
 H    1.134787    1.594724    4.224037
 H    0.272056    0.167639    4.829456
 H   -0.511979   -0.412934   -1.425648
 H   -2.471420   -1.969759   -2.982146
 H   -3.990405   -4.330593   -0.841152
 H   -3.290549   -4.457546    1.562441
 H   -1.643171   -2.825773    2.443862
 H    4.345291    2.012725    0.121412
 H    3.819027    3.683930    0.024034
 H    3.551591    3.614481   -2.351443
 H    5.043944    2.788151   -1.978263
 H    2.397081    1.653463   -2.982272
 H    4.012320    1.448835   -3.646175
 H    4.332920   -0.091343   -1.579088
 H    4.160967   -0.349817    0.696223
 H    5.049097   -2.591396    1.511626
 H    2.475209   -4.991442    1.122951
 H    0.656489   -4.575182   -0.541073
 H    0.674724   -2.490402   -1.892807
