79 
4k19_ligand_aiqm1.xyz
 O   -3.806762   -1.731959   -0.532183
 C   -3.180153   -2.004634    0.489096
 C   -3.107765   -1.027929    1.623896
 C   -3.654272    0.240416    1.385248
 C   -3.565056    1.260908    2.316479
 C   -2.903146    1.035318    3.523919
 C   -2.347289   -0.205420    3.774235
 O   -1.671827   -0.514894    4.932524
 C   -2.458082   -1.244784    2.842037
 O   -1.927475   -2.460769    3.175829
 N   -2.473575   -3.147444    0.606173
 C   -2.311716   -4.034914   -0.528318
 C   -1.471358   -3.429442   -1.657445
 C   -0.146473   -2.845288   -1.167069
 N    0.547721   -2.061220   -2.196326
 C    0.332615   -0.746688   -2.371906
 O    0.938067   -0.082438   -3.223400
 C   -0.718202   -0.061717   -1.509034
 C   -1.189552    1.282052   -2.070278
 C   -2.519926    1.221779   -2.779319
 O   -1.290253    2.108643   -0.879714
 N   -0.219364    0.266192   -0.160492
 C   -0.630422    1.455121    0.093290
 C   -0.485818    2.119221    1.387200
 C    0.093261    1.429697    2.459314
 O    0.597374    0.177024    2.423934
 C    0.142574    2.047902    3.713511
 O    0.590926    1.325071    4.793471
 C   -0.342290    3.329570    3.902937
 C   -0.900850    4.018675    2.818739
 C   -0.975938    3.417436    1.574069
 C    1.470775   -2.742615   -3.103264
 C    2.721140   -3.345548   -2.449026
 C    3.326430   -2.563226   -1.284419
 N    3.347855   -1.126322   -1.466099
 C    2.913810   -0.317865   -0.475143
 O    2.489968   -0.763775    0.589433
 C    2.996170    1.162725   -0.689658
 C    3.177546    1.806496   -1.918559
 O    3.290391    1.162103   -3.137431
 C    3.306379    3.200111   -1.977834
 O    3.516982    3.800987   -3.179550
 C    3.239473    3.966172   -0.823096
 C    3.033714    3.335026    0.401049
 C    2.913458    1.954611    0.467259
 H   -4.144733    0.396297    0.433608
 H   -3.974779    2.237246    2.097580
 H   -2.784870    1.825583    4.258635
 H   -1.018334    0.175013    5.121318
 H   -1.479893   -2.345361    4.021927
 H   -1.973100   -3.315612    1.462032
 H   -3.299667   -4.281612   -0.919143
 H   -1.850616   -4.953571   -0.165778
 H   -1.285754   -4.198668   -2.411257
 H   -2.061266   -2.649273   -2.138961
 H    0.520900   -3.644958   -0.846734
 H   -0.304129   -2.193969   -0.317156
 H   -1.578423   -0.715194   -1.389150
 H   -0.417284    1.730071   -2.694849
 H   -3.264290    0.702391   -2.175365
 H   -2.384354    0.669107   -3.710402
 H   -2.880337    2.222110   -3.016472
 H    0.811859   -0.123465    1.518119
 H    1.123044    0.596839    4.453448
 H   -0.299168    3.775543    4.889428
 H   -1.282047    5.019227    2.961761
 H   -1.424578    3.927203    0.734043
 H    1.755012   -2.002806   -3.846445
 H    0.928503   -3.539939   -3.620226
 H    2.501870   -4.349740   -2.079363
 H    3.464913   -3.473003   -3.239024
 H    2.748556   -2.728601   -0.378583
 H    4.337806   -2.934321   -1.094849
 H    3.755901   -0.715104   -2.288364
 H    2.449382    0.702909   -3.316304
 H    3.533954    3.095004   -3.837187
 H    3.343341    5.040973   -0.898631
 H    2.976082    3.927997    1.304752
 H    2.767332    1.457314    1.413815
