47 
4k3l_ligand_ani-2x.xyz
 N   -1.999124    1.752828    0.049992
 C   -1.249546    0.584998    0.444855
 C   -0.447604    0.117630   -0.770504
 O   -0.719663    0.485171   -1.908167
 C   -2.116692   -0.557977    1.020959
 C   -2.861309   -1.451590    0.017962
 C   -3.611985   -2.544632    0.781167
 C   -3.814359   -0.677568   -0.893173
 N    0.544123   -0.767985   -0.514469
 C    1.381364   -1.266675   -1.582556
 C    2.051905   -2.577518   -1.218206
 O    2.819029   -3.161115   -1.945748
 C    2.439466   -0.243078   -2.056399
 C    3.338958    0.247637   -0.945779
 C    4.466796   -0.483276   -0.564231
 C    3.038410    1.426601   -0.260427
 C    5.279066   -0.040465    0.475074
 C    3.846288    1.869919    0.782909
 C    4.969694    1.136879    1.150560
 O    1.725349   -3.036761    0.003793
 C   -2.370662    2.696496    0.959975
 O   -2.155705    2.555905    2.154853
 C   -3.059463    3.910156    0.368299
 H   -2.082447    1.911002   -0.946306
 H   -0.570100    0.890063    1.249857
 H   -1.458202   -1.201123    1.622167
 H   -2.825061   -0.097694    1.721494
 H   -2.107939   -1.942390   -0.616586
 H   -4.373554   -2.107281    1.439894
 H   -2.930572   -3.137945    1.401737
 H   -4.120199   -3.228954    0.092279
 H   -3.271056   -0.032975   -1.589916
 H   -4.501889   -0.055410   -0.305227
 H   -4.417725   -1.372180   -1.489036
 H    0.759165   -1.017165    0.438520
 H    0.733779   -1.478959   -2.441490
 H    1.893878    0.592848   -2.503608
 H    3.026933   -0.720223   -2.848286
 H    4.701515   -1.410197   -1.085466
 H    2.157262    1.998892   -0.546530
 H    6.156596   -0.615770    0.758457
 H    3.599844    2.790511    1.306772
 H    5.604489    1.481745    1.963514
 H    2.216150   -3.868398    0.114894
 H   -3.921814    3.619882   -0.242103
 H   -3.393240    4.553343    1.182888
 H   -2.369451    4.472998   -0.270356
