47 
4k3l_ligand_xtb.xyz
 N   -2.483059    1.893758   -0.379863
 C   -1.301068    1.190506    0.054734
 C   -0.586781    0.682804   -1.194171
 O   -1.079535    0.763677   -2.302237
 C   -1.619429    0.045858    1.039018
 C   -2.177736   -1.235531    0.409938
 C   -2.383045   -2.274094    1.512425
 C   -3.487626   -0.994927   -0.335679
 N    0.633098    0.163023   -0.960329
 C    1.436720   -0.431117   -1.996214
 C    1.584974   -1.935985   -1.812654
 O    2.138863   -2.661287   -2.590873
 C    2.842995    0.206070   -2.056886
 C    3.556928    0.020804   -0.746753
 C    4.341027   -1.104154   -0.521908
 C    3.400650    0.946847    0.278263
 C    4.952010   -1.300899    0.703984
 C    4.010775    0.750295    1.505095
 C    4.785291   -0.376396    1.721438
 O    1.042297   -2.369419   -0.671483
 C   -3.158591    2.756055    0.407823
 O   -2.854821    2.961257    1.565159
 C   -4.327165    3.420247   -0.289978
 H   -2.701913    1.788699   -1.361997
 H   -0.652168    1.905953    0.580708
 H   -0.705832   -0.205471    1.582761
 H   -2.333375    0.440968    1.763944
 H   -1.440898   -1.628840   -0.299166
 H   -3.117093   -1.919022    2.232259
 H   -1.451110   -2.467919    2.039029
 H   -2.740369   -3.211376    1.092518
 H   -3.316320   -0.430852   -1.247547
 H   -4.188335   -0.448806    0.292017
 H   -3.940673   -1.945377   -0.610197
 H    0.972669    0.076027   -0.015042
 H    0.914151   -0.257259   -2.945091
 H    2.729609    1.266837   -2.283640
 H    3.395002   -0.274903   -2.864749
 H    4.474993   -1.826382   -1.314137
 H    2.806953    1.834632    0.109690
 H    5.561985   -2.177472    0.864927
 H    3.882150    1.478840    2.291911
 H    5.262052   -0.530711    2.677770
 H    1.153630   -3.329755   -0.585202
 H   -5.020491    2.665933   -0.654711
 H   -4.839404    4.074634    0.408945
 H   -3.971281    4.004428   -1.135551
