93 
4k3p_ligand_ani-2x.xyz
 C    5.809834   -2.598390   -0.970740
 O    6.326472   -1.518792   -1.243791
 C    6.589701   -3.894813   -0.965778
 N    4.492091   -2.723165   -0.668760
 C    3.609129   -1.596109   -0.474039
 C    2.654391   -1.957861    0.671161
 O    2.560424   -3.101667    1.091829
 C    2.808238   -1.240429   -1.745893
 C    3.635094   -0.514332   -2.815676
 C    3.989774    0.901192   -2.390132
 O    3.181008    1.826554   -2.475193
 N    5.233004    1.094622   -1.913040
 N    1.942915   -0.916486    1.189010
 C    0.865135   -1.176285    2.110453
 C   -0.380342   -1.706856    1.363483
 O   -0.460742   -1.741320    0.137313
 C    0.526986    0.082493    2.928394
 C    1.733508    0.801576    3.547801
 C    2.596856   -0.142684    4.384783
 C    1.248882    1.986209    4.383701
 N   -1.398479   -2.129972    2.152425
 C   -2.599415   -2.758523    1.611688
 C   -3.390095   -1.729033    0.787371
 O   -4.079277   -0.870404    1.311455
 C   -3.462360   -3.310205    2.740203
 N   -3.292148   -1.879937   -0.569660
 C   -3.893815   -0.915781   -1.479286
 C   -3.316531    0.509809   -1.344974
 O   -4.004650    1.491181   -1.593875
 C   -5.422748   -0.846031   -1.401853
 C   -6.185713   -2.159533   -1.639375
 C   -6.188326   -3.100713   -0.428276
 C   -5.720843   -2.887402   -2.902175
 N   -2.004378    0.621502   -1.008950
 C   -1.396121    1.941489   -0.979550
 C    0.102852    1.737626   -1.153371
 O    0.502620    1.887406   -2.401163
 C   -1.725209    2.700609    0.317414
 C   -1.212078    4.122996    0.337779
 C   -1.977360    5.156000   -0.207481
 C    0.037298    4.427841    0.880771
 C   -1.507181    6.466320   -0.205580
 C    0.509995    5.736367    0.886399
 C   -0.262517    6.759158    0.343765
 O    0.836317    1.442190   -0.224838
 H    7.639585   -3.671802   -1.155707
 H    6.496266   -4.408638   -0.002846
 H    6.218068   -4.569084   -1.744413
 H    4.154935   -3.587153   -0.259677
 H    4.213101   -0.728139   -0.181345
 H    2.410596   -2.169627   -2.167994
 H    1.943547   -0.616063   -1.487303
 H    3.035862   -0.432293   -3.728340
 H    4.541006   -1.078742   -3.050566
 H    5.473786    2.016412   -1.581151
 H    5.842457    0.309754   -1.710693
 H    1.836849   -0.090796    0.608609
 H    1.203739   -1.974003    2.782853
 H   -0.167604   -0.195179    3.733141
 H   -0.013366    0.789063    2.282867
 H    2.349866    1.194036    2.725967
 H    2.003347   -0.605466    5.184103
 H    3.029543   -0.942967    3.774245
 H    3.422230    0.402685    4.855722
 H    0.623880    1.641555    5.216895
 H    0.649819    2.679066    3.779241
 H    2.091545    2.546239    4.804110
 H   -1.318161   -2.058321    3.156312
 H   -2.292338   -3.566129    0.937074
 H   -4.348743   -3.813203    2.337346
 H   -3.803471   -2.498049    3.389113
 H   -2.900913   -4.039901    3.332397
 H   -2.463626   -2.349756   -0.908402
 H   -3.605810   -1.252829   -2.485580
 H   -5.703273   -0.439742   -0.426349
 H   -5.732735   -0.110027   -2.151425
 H   -7.229617   -1.851638   -1.800292
 H   -5.234435   -3.623913   -0.313989
 H   -6.967480   -3.862120   -0.545228
 H   -6.387725   -2.550909    0.498706
 H   -6.364604   -3.748288   -3.114759
 H   -4.697099   -3.265180   -2.786270
 H   -5.740280   -2.226034   -3.777047
 H   -1.462738   -0.194159   -0.728559
 H   -1.778083    2.506441   -1.834436
 H    1.491091    1.773633   -2.445899
 H   -1.306462    2.131914    1.156085
 H   -2.814723    2.688922    0.418954
 H   -2.954363    4.934115   -0.634985
 H    0.646646    3.624307    1.286927
 H   -2.115436    7.260658   -0.631737
 H    1.483659    5.960791    1.315094
 H    0.105167    7.782288    0.347341
