87 
4k3q_ligand_aiqm1.xyz
 C    4.555183    3.939195   -1.012525
 O    4.110544    4.336298    0.061784
 C    5.505150    4.774246   -1.837210
 N    4.231727    2.739209   -1.530355
 C    3.525013    1.719876   -0.787370
 C    4.186517    0.376531   -1.108834
 O    4.807370    0.203485   -2.147873
 C    2.029364    1.651233   -1.155021
 C    1.227917    2.877698   -0.701390
 C    0.938817    2.852807    0.782013
 O   -0.072074    2.306225    1.237127
 N    1.831109    3.463479    1.570542
 N    3.980646   -0.565688   -0.177600
 C    4.356610   -1.961107   -0.363758
 C    3.120423   -2.839915   -0.108042
 O    3.142500   -3.870657    0.541533
 C    5.582758   -2.359175    0.458067
 C    5.708002   -1.750727    1.856464
 C    7.036611   -2.188610    2.471258
 C    4.557906   -2.135044    2.786902
 N    1.986593   -2.371393   -0.691483
 C    0.676741   -2.761735   -0.253081
 C   -0.333323   -2.034372   -1.146857
 O    0.015927   -1.099408   -1.854189
 C    0.444122   -2.391201    1.241586
 C    0.547591   -0.900478    1.428664
 O    1.603832   -0.308474    1.550189
 O   -0.623124   -0.286026    1.354942
 N   -1.592754   -2.483185   -1.071137
 C   -2.688611   -1.727052   -1.633526
 C   -3.867197   -1.896195   -0.676867
 O   -3.847940   -2.730671    0.218883
 C   -3.026406   -2.185072   -3.050669
 N   -4.908122   -1.080645   -0.902277
 C   -6.074991   -1.073652   -0.051759
 C   -7.153153   -0.323222   -0.804536
 O   -8.335824   -0.377366   -0.172270
 C   -5.807235   -0.439364    1.330857
 C   -5.308081    0.977958    1.227216
 C   -3.937861    1.242948    1.148383
 C   -6.206858    2.046376    1.161455
 C   -3.472121    2.550154    1.003410
 C   -5.746582    3.350858    1.010069
 C   -4.380048    3.603027    0.927963
 O   -6.981561    0.260497   -1.843080
 H    6.495400    4.724581   -1.383506
 H    5.181548    5.812019   -1.813088
 H    5.568815    4.426868   -2.867380
 H    4.731163    2.387331   -2.335317
 H    3.629662    1.919948    0.276528
 H    1.953548    1.565243   -2.242383
 H    1.588868    0.750849   -0.724475
 H    0.265527    2.874084   -1.211396
 H    1.762901    3.792356   -0.961189
 H    1.708243    3.418891    2.566607
 H    2.672432    3.861785    1.172464
 H    3.428988   -0.329804    0.636248
 H    4.596623   -2.066494   -1.424729
 H    6.462308   -2.060176   -0.119882
 H    5.592893   -3.447215    0.539543
 H    5.728230   -0.657884    1.756419
 H    7.189325   -1.719036    3.443995
 H    7.879789   -1.926697    1.829282
 H    7.042057   -3.271488    2.616498
 H    4.438103   -3.219585    2.798192
 H    4.766847   -1.804155    3.806817
 H    3.603139   -1.696064    2.488057
 H    2.009663   -1.512689   -1.220181
 H    0.549005   -3.840771   -0.336725
 H    1.221806   -2.881686    1.823183
 H   -0.531953   -2.753690    1.558371
 H   -0.456563    0.688915    1.367470
 H   -1.868123   -3.116945   -0.334521
 H   -2.408024   -0.674842   -1.663732
 H   -3.326522   -3.233963   -3.051220
 H   -3.831026   -1.584610   -3.475392
 H   -2.144571   -2.072645   -3.678184
 H   -4.885818   -0.393535   -1.637472
 H   -6.412463   -2.097266    0.111409
 H   -8.958772    0.132888   -0.707167
 H   -5.063928   -1.063723    1.822184
 H   -6.732633   -0.488807    1.904519
 H   -3.235899    0.415780    1.212647
 H   -7.272230    1.852717    1.237076
 H   -2.406998    2.743320    0.960776
 H   -6.456307    4.167754    0.960190
 H   -4.025501    4.618753    0.814539
