87 
4k3q_ligand_ani-2x.xyz
 C    5.201637    3.876303   -0.156084
 O    4.447004    4.143065    0.775872
 C    6.456922    4.669091   -0.442617
 N    4.952739    2.855502   -1.017360
 C    3.877900    1.914544   -0.814910
 C    4.389377    0.520335   -1.188157
 O    5.303399    0.348694   -1.982178
 C    2.616310    2.249616   -1.638145
 C    1.818905    3.441885   -1.080901
 C    1.063995    3.053157    0.177830
 O   -0.048112    2.522463    0.093678
 N    1.673185    3.317843    1.348259
 N    3.717118   -0.484905   -0.574231
 C    4.104748   -1.884800   -0.671036
 C    2.904782   -2.737956   -0.218232
 O    2.993798   -3.687594    0.546448
 C    5.400443   -2.226639    0.080053
 C    5.620869   -1.557445    1.446791
 C    7.017102   -1.921965    1.959470
 C    4.566271   -1.899956    2.499196
 N    1.710831   -2.345334   -0.732716
 C    0.466137   -2.739895   -0.128509
 C   -0.656852   -2.326450   -1.082714
 O   -0.457433   -1.594134   -2.041913
 C    0.276520   -2.082012    1.268457
 C    0.412163   -0.576500    1.179915
 O    1.479269    0.007524    1.263091
 O   -0.738615    0.049380    0.968443
 N   -1.893514   -2.781816   -0.763454
 C   -3.069984   -2.273500   -1.429085
 C   -4.199527   -2.273733   -0.397742
 O   -4.161097   -3.001879    0.586253
 C   -3.445105   -3.107068   -2.656415
 N   -5.236465   -1.438953   -0.639709
 C   -6.276078   -1.248221    0.342440
 C   -7.450040   -0.594861   -0.357064
 O   -8.534198   -0.518904    0.434075
 C   -5.805735   -0.417660    1.563434
 C   -5.319952    0.963665    1.195759
 C   -3.970022    1.201382    0.919746
 C   -6.225207    2.023480    1.096273
 C   -3.541821    2.469200    0.535816
 C   -5.795962    3.292974    0.721863
 C   -4.453070    3.516293    0.437032
 O   -7.428097   -0.160884   -1.483796
 H    6.589367    5.410936    0.345017
 H    6.376037    5.180405   -1.407529
 H    7.336584    4.017590   -0.478612
 H    5.665643    2.553227   -1.670496
 H    3.612220    1.929249    0.248465
 H    2.924952    2.460638   -2.667517
 H    1.957466    1.370822   -1.668849
 H    1.065274    3.738709   -1.814087
 H    2.478806    4.292186   -0.893265
 H    1.293585    2.916408    2.194568
 H    2.619404    3.687842    1.361343
 H    3.043746   -0.246551    0.149086
 H    4.274935   -2.094004   -1.736243
 H    6.228130   -1.925912   -0.573072
 H    5.447197   -3.317084    0.185044
 H    5.596680   -0.468952    1.288834
 H    7.230301   -1.420083    2.909889
 H    7.793307   -1.629908    1.243000
 H    7.099336   -3.003908    2.125803
 H    4.459479   -2.984207    2.614321
 H    4.851919   -1.476598    3.468906
 H    3.583045   -1.491746    2.244377
 H    1.657813   -1.567854   -1.377591
 H    0.466410   -3.825328    0.015252
 H    1.066535   -2.463336    1.918960
 H   -0.695100   -2.352541    1.691605
 H   -0.532868    1.005330    0.781709
 H   -2.071610   -3.294403    0.090751
 H   -2.854889   -1.248108   -1.755011
 H   -3.636923   -4.146774   -2.373315
 H   -4.337341   -2.700249   -3.144791
 H   -2.615542   -3.085542   -3.368075
 H   -5.252050   -0.834389   -1.449280
 H   -6.591745   -2.230035    0.709361
 H   -9.226548   -0.086632   -0.094316
 H   -5.002788   -0.991174    2.036408
 H   -6.636112   -0.359279    2.275738
 H   -3.238043    0.396795    1.009585
 H   -7.277205    1.848547    1.314811
 H   -2.489616    2.638503    0.316463
 H   -6.511036    4.108460    0.651551
 H   -4.118635    4.507595    0.140649
