54 
4k5y_ligand_xtb.xyz
 C  -40.688432  -18.384027   33.201050
 C  -44.991635  -20.047641   36.002347
 C  -37.982131  -21.677873   35.290701
 C  -41.605620  -22.301999   37.292338
 C  -41.444756  -21.252546   36.229337
 C  -42.509842  -20.428271   35.826273
 C  -42.257830  -19.477743   34.827777
 C  -40.996322  -19.383371   34.275332
 C  -40.216231  -21.062604   35.599249
 C  -37.816792  -22.246441   34.029337
 C  -34.215278  -21.321461   33.300379
 C  -38.953120  -22.965749   33.370083
 C  -37.171525  -20.375973   37.264489
 C  -36.586778  -22.115369   33.405294
 C  -35.533407  -21.439575   34.006386
 C  -35.728736  -20.883601   35.260970
 C  -36.946245  -20.989935   35.916470
 C  -45.072475  -18.377940   37.902402
 C  -45.780728  -19.539918   37.216869
 C  -45.779312  -21.133805   35.249285
 C  -45.069903  -21.586318   33.978678
 N  -43.716855  -20.549549   36.453075
 N  -39.990810  -20.163936   34.653752
 O  -39.177769  -21.845245   35.983350
 H  -41.312646  -18.561569   32.326506
 H  -40.881383  -17.373076   33.556037
 H  -39.643429  -18.471988   32.919307
 H  -44.816095  -19.207365   35.327197
 H  -41.878634  -21.852790   38.248544
 H  -42.373844  -23.027709   37.016777
 H  -40.666478  -22.831847   37.419425
 H  -43.031621  -18.811958   34.482110
 H  -33.799658  -22.309299   33.104548
 H  -34.341735  -20.818321   32.342606
 H  -33.502802  -20.757798   33.897095
 H  -39.448440  -23.627439   34.079110
 H  -39.688756  -22.241321   33.019690
 H  -38.603054  -23.548065   32.521553
 H  -37.963129  -19.629401   37.203107
 H  -37.489418  -21.135417   37.977511
 H  -36.265592  -19.900493   37.631054
 H  -36.445509  -22.550797   32.425828
 H  -34.919836  -20.350361   35.740691
 H  -44.066563  -18.668973   38.194557
 H  -44.998888  -17.526714   37.229458
 H  -45.617780  -18.068306   38.790504
 H  -45.908296  -20.361551   37.926066
 H  -46.773202  -19.225033   36.890347
 H  -46.765679  -20.741259   34.995358
 H  -45.923473  -21.990406   35.913364
 H  -44.956252  -20.753846   33.287984
 H  -44.079806  -21.975533   34.205184
 H  -45.640882  -22.368137   33.483365
 H  -43.792692  -21.329839   37.087091
