54 
4k5y_ligand_aiqm1.xyz
 C  -40.753019  -18.313225   33.204173
 C  -44.960075  -19.996029   36.053767
 C  -37.982423  -21.730600   35.231118
 C  -41.571803  -22.294348   37.288941
 C  -41.422355  -21.247212   36.220975
 C  -42.486396  -20.397690   35.866949
 C  -42.262829  -19.428933   34.869711
 C  -41.019069  -19.345813   34.263584
 C  -40.226390  -21.056662   35.536497
 C  -37.770650  -22.399786   34.029968
 C  -34.152340  -21.408975   33.339739
 C  -38.874813  -23.202259   33.407015
 C  -37.306894  -20.217838   37.112696
 C  -36.515358  -22.286758   33.434177
 C  -35.497863  -21.519238   34.007793
 C  -35.762836  -20.858041   35.208004
 C  -37.007707  -20.945071   35.835084
 C  -45.229367  -18.458676   38.077767
 C  -45.821403  -19.593493   37.250127
 C  -45.695665  -21.011084   35.167033
 C  -44.930008  -21.419447   33.914297
 N  -43.684299  -20.504983   36.533883
 N  -39.999074  -20.157196   34.585296
 O  -39.205221  -21.895673   35.883413
 H  -41.607374  -18.214999   32.532053
 H  -40.582898  -17.334195   33.659600
 H  -39.865699  -18.592547   32.639464
 H  -44.764166  -19.101018   35.460835
 H  -41.874911  -21.850453   38.240377
 H  -42.328178  -23.040173   37.024291
 H  -40.636276  -22.821121   37.449361
 H  -43.047053  -18.747715   34.573596
 H  -33.672691  -22.387639   33.264582
 H  -34.252631  -21.018858   32.324722
 H  -33.490225  -20.745297   33.898357
 H  -39.200684  -24.003583   34.072899
 H  -39.743623  -22.566521   33.219334
 H  -38.548259  -23.641014   32.463860
 H  -38.176979  -19.569273   36.988238
 H  -37.543268  -20.917963   37.916399
 H  -36.456556  -19.609035   37.420295
 H  -36.333633  -22.799939   32.494563
 H  -34.988199  -20.247846   35.661764
 H  -44.247343  -18.728341   38.466952
 H  -45.114263  -17.553735   37.477552
 H  -45.877833  -18.219627   38.921522
 H  -45.964121  -20.478425   37.879940
 H  -46.810832  -19.305644   36.884961
 H  -46.659405  -20.581225   34.883408
 H  -45.920546  -21.897678   35.770089
 H  -44.681254  -20.548713   33.304424
 H  -43.994787  -21.921554   34.165704
 H  -45.525140  -22.098074   33.301895
 H  -43.781417  -21.336269   37.094155
