88 
4k63_ligand_ani-2x.xyz
 C   -3.982142   -0.219021    2.524263
 C   -3.060637   -0.564682    1.333783
 C   -3.100634   -2.039203    0.946651
 C   -4.386309   -2.419019    0.225728
 C   -4.677978   -1.407769   -0.899476
 C   -4.693307    0.006464   -0.305455
 C   -5.068608    1.095129   -1.317460
 C   -4.481505    2.467986   -1.001605
 C   -3.037551    2.649188   -1.450737
 C   -7.136067   -1.760469   -1.040522
 C   -8.286068   -1.898570   -2.017248
 N   -5.892987   -1.756296   -1.620240
 O   -4.017635   -1.186993    3.452157
 O   -4.596382    0.810468    2.628469
 O   -4.190067   -3.712329   -0.305139
 O   -3.403745    0.262900    0.258659
 O   -4.716329    0.715993   -2.641508
 O   -5.279457    3.396338   -1.718631
 O   -2.673712    3.960267   -1.061103
 O   -7.295642   -1.695973    0.167958
 C    1.600309   -0.226519    0.203093
 C    0.453377   -0.701999    1.100588
 C   -0.799333    0.116247    0.841301
 C   -0.482099    1.607614    0.971344
 C    0.663604    1.963618    0.034056
 C    1.084555    3.416018    0.168414
 O    0.154567   -2.057628    0.824141
 O   -1.793835   -0.184935    1.806825
 O   -0.097354    1.931372    2.287398
 O    1.810267    1.166636    0.334326
 O   -0.033725    4.274762   -0.057517
 C    6.779488   -1.439127    0.150494
 C    6.276569   -0.017457   -0.197436
 C    4.894720    0.207903    0.399855
 C    3.899123   -0.775003   -0.233272
 C    4.551717   -2.158983   -0.398943
 C    4.831288   -2.505457   -1.871547
 C    8.418326    1.185741   -0.280108
 C    9.158683    2.444557    0.107780
 N    7.183834    1.019247    0.261822
 O    7.566947   -1.972433   -0.879143
 O    4.548603    1.555199    0.166328
 O    2.754229   -0.905866    0.605556
 O    5.713175   -2.302421    0.415670
 O    5.495923   -3.732709   -2.003057
 O    8.926406    0.363189   -1.042954
 H   -2.255650   -2.248804    0.281273
 H   -2.970335   -2.661506    1.835560
 H   -5.234001   -2.409696    0.928024
 H   -3.853279   -1.453309   -1.613636
 H   -5.448127    0.048874    0.490672
 H   -6.160901    1.218842   -1.263326
 H   -4.546154    2.650968    0.082103
 H   -2.982979    2.538718   -2.544370
 H   -2.406983    1.879514   -0.999649
 H   -9.219144   -1.695578   -1.490662
 H   -8.187372   -1.209868   -2.864181
 H   -8.320177   -2.918815   -2.415278
 H   -5.858335   -1.578726   -2.614182
 H   -4.586706   -0.852501    4.164942
 H   -4.977403   -3.930676   -0.822301
 H   -5.089321    1.409941   -3.204170
 H   -4.806234    4.240072   -1.663340
 H   -1.707169    4.024567   -0.987551
 H    1.377221   -0.461899   -0.854763
 H    0.758664   -0.559148    2.145189
 H   -1.150642   -0.111589   -0.174534
 H   -1.380842    2.184841    0.696489
 H    0.356156    1.764613   -1.006269
 H    1.846940    3.652387   -0.582403
 H    1.517117    3.579516    1.160825
 H    0.953358   -2.563155    1.022244
 H   -0.779858    1.555008    2.862890
 H   -0.387856    4.516689    0.809087
 H    7.359319   -1.411204    1.086635
 H    6.200537    0.046323   -1.294221
 H    4.917084   -0.004514    1.481258
 H    3.594697   -0.388228   -1.217712
 H    3.871088   -2.913195    0.002703
 H    3.869025   -2.594381   -2.391079
 H    5.393784   -1.693547   -2.361302
 H   10.131778    2.161862    0.518859
 H    9.346609    3.032331   -0.795839
 H    8.624846    3.062718    0.834846
 H    6.727422    1.832464    0.658408
 H    8.214854   -1.272677   -1.121932
 H    3.599505    1.644919    0.363231
 H    6.381333   -3.590297   -1.632379
