61 
4k64_ligand_dft.xyz
 C    0.215868   -0.795943    1.212450
 C   -0.097079   -0.893860   -0.304252
 C   -0.776632   -2.196599   -0.694971
 C   -2.209293   -2.297355   -0.170785
 C   -2.997433   -1.039024   -0.574725
 C   -2.217965    0.223096   -0.176512
 C   -2.873605    1.540879   -0.693778
 C   -3.272725    2.425911    0.487993
 C   -3.892815    3.738582    0.041537
 C   -5.382961   -1.649931   -0.292007
 C   -6.692404   -1.226940    0.338911
 N   -4.298483   -0.932088    0.075789
 O   -0.049503    0.143576    1.920374
 O    0.865355   -1.885907    1.637046
 O   -2.743865   -3.483426   -0.689970
 O   -0.897950    0.200985   -0.688061
 O   -2.037875    2.264125   -1.559917
 O   -4.220492    1.705625    1.265111
 O   -4.380297    4.351650    1.228158
 O   -5.326439   -2.599242   -1.073162
 C    5.420011    1.041495   -1.078941
 C    5.929779    0.364115    0.184843
 C    5.247674   -0.984582    0.348626
 C    3.728931   -0.814559    0.333130
 C    3.314784    0.008522   -0.891830
 C    1.842774    0.389141   -0.870220
 O    6.043609    2.277869   -1.163865
 O    7.320120    0.123102    0.147369
 O    5.594267   -1.572686    1.587514
 O    3.314687   -0.156179    1.511929
 O    4.028777    1.229379   -0.988984
 O    1.094228   -0.813355   -1.011740
 H   -0.801370   -2.223703   -1.788648
 H   -0.193965   -3.051454   -0.346895
 H   -2.198036   -2.329224    0.934628
 H   -3.138474   -1.060560   -1.664414
 H   -2.168972    0.261390    0.918378
 H   -3.791648    1.285311   -1.241735
 H   -2.376416    2.638614    1.090431
 H   -3.140399    4.354509   -0.462455
 H   -4.713429    3.532519   -0.662011
 H   -7.458710   -1.203171   -0.438935
 H   -6.635643   -0.250870    0.827503
 H   -6.992082   -1.979391    1.074385
 H   -4.437637   -0.135553    0.692839
 H    1.166924   -1.690048    2.538688
 H   -3.689436   -3.338159   -0.890841
 H   -1.159213    1.860561   -1.498961
 H   -4.627547    2.358044    1.854255
 H   -4.911092    5.117542    0.986407
 H    5.649536    0.414290   -1.962276
 H    5.653331    1.011131    1.028838
 H    5.552495   -1.634939   -0.486015
 H    3.249854   -1.800552    0.257337
 H    3.506720   -0.609411   -1.785726
 H    1.614437    0.910829    0.063450
 H    1.628068    1.058933   -1.709102
 H    5.747318    2.711327   -1.973919
 H    7.753593    0.979885    0.042132
 H    6.547501   -1.445408    1.692680
 H    3.895237   -0.499660    2.208235
