61 
4k64_ligand_aiqm1.xyz
 C    0.517172    1.529417   -0.449333
 C    0.219110    0.553505    0.726983
 C   -0.262706    1.314926    1.944398
 C   -1.618540    1.966294    1.702648
 C   -2.605070    0.863932    1.308597
 C   -2.070521    0.055462    0.116756
 C   -2.943779   -1.189503   -0.174862
 C   -3.447015   -1.170807   -1.618650
 C   -4.265053   -2.403943   -1.937084
 C   -4.839928    1.801118    1.783674
 C   -6.194432    2.134307    1.209013
 N   -3.902331    1.394800    0.898876
 O   -0.016284    1.520014   -1.524210
 O    1.453669    2.414467   -0.089038
 O   -1.971181    2.667708    2.871669
 O   -0.734087   -0.417286    0.320981
 O   -2.290231   -2.413128    0.069935
 O   -4.262146   -0.003484   -1.746792
 O   -4.817422   -2.181528   -3.235405
 O   -4.609667    1.907302    2.986180
 C    5.361560   -2.136155   -0.306682
 C    6.039094   -0.870969   -0.812486
 C    5.552067    0.318023   -0.009844
 C    4.033822    0.391243   -0.092647
 C    3.430886   -0.954742    0.316349
 C    1.931659   -1.011070    0.123226
 O    5.820389   -3.200139   -1.084351
 O    7.446505   -0.930035   -0.671035
 O    6.068256    1.530085   -0.532299
 O    3.624649    0.697319   -1.417030
 O    3.965220   -2.029043   -0.454111
 O    1.366652   -0.127654    1.095381
 H   -0.363699    0.599047    2.763180
 H    0.477964    2.061559    2.228057
 H   -1.546099    2.672447    0.858599
 H   -2.742023    0.214621    2.180695
 H   -2.089641    0.712615   -0.760288
 H   -3.822218   -1.141559    0.479249
 H   -2.604476   -1.115691   -2.317678
 H   -3.621767   -3.283488   -1.924801
 H   -5.058302   -2.525789   -1.193894
 H   -6.928610    1.459123    1.646413
 H   -6.231992    2.058288    0.123322
 H   -6.458350    3.144295    1.515771
 H   -4.183820    1.238996   -0.061567
 H    1.648444    2.949065   -0.870060
 H   -2.893365    2.472114    3.104089
 H   -1.364954   -2.211125    0.238316
 H   -4.727523   -0.084475   -2.582397
 H   -5.382382   -2.919575   -3.459288
 H    5.599387   -2.312062    0.758003
 H    5.749186   -0.739013   -1.858958
 H    5.859928    0.193093    1.034417
 H    3.674549    1.162861    0.598250
 H    3.663978   -1.115351    1.379548
 H    1.672591   -0.713786   -0.893807
 H    1.571253   -2.026146    0.302376
 H    5.135188   -3.871856   -1.071895
 H    7.757582   -1.693789   -1.161851
 H    7.013060    1.404243   -0.649550
 H    4.216094    1.391204   -1.722856
