61 
4k67_ligand_xtb.xyz
 C    0.586877    1.407324   -0.527770
 C    0.227857    0.565930    0.721849
 C   -0.257734    1.475027    1.854945
 C   -1.637127    2.067141    1.530476
 C   -2.594207    0.895682    1.252896
 C   -2.036444    0.054206    0.098179
 C   -2.923899   -1.187044   -0.200699
 C   -3.524672   -1.066987   -1.614587
 C   -4.413466   -2.271934   -1.928074
 C   -4.840887    1.628312    1.866615
 C   -6.222336    1.911720    1.331719
 N   -3.928448    1.342871    0.914268
 O    0.127959    1.237136   -1.624647
 O    1.476788    2.344758   -0.239740
 O   -2.071141    2.898567    2.569524
 O   -0.732824   -0.418045    0.387345
 O   -2.230479   -2.395560   -0.079933
 O   -4.280136    0.124130   -1.689175
 O   -4.988449   -2.044723   -3.201219
 O   -4.550875    1.670068    3.049786
 C    5.395878   -2.159419   -0.177511
 C    6.047508   -0.904079   -0.789070
 C    5.569186    0.332822   -0.024896
 C    4.034368    0.374462   -0.042699
 C    3.468360   -0.966820    0.453192
 C    1.949446   -1.025263    0.284291
 O    5.799521   -3.301852   -0.853733
 O    7.450233   -0.973395   -0.713313
 O    6.035267    1.513388   -0.634834
 O    3.581590    0.644828   -1.346071
 O    3.999803   -2.069107   -0.249729
 O    1.361067   -0.100067    1.186963
 H   -0.321284    0.873674    2.762866
 H    0.468035    2.269679    2.016420
 H   -1.561127    2.687915    0.622222
 H   -2.654465    0.286344    2.166958
 H   -2.003830    0.686958   -0.798432
 H   -3.758663   -1.210884    0.514815
 H   -2.707274   -1.035377   -2.350199
 H   -3.802614   -3.178847   -1.911535
 H   -5.197675   -2.353114   -1.162909
 H   -6.527883    1.135917    0.634775
 H   -6.213811    2.865558    0.808835
 H   -6.925038    1.967827    2.157732
 H   -4.205970    1.257270   -0.054697
 H    1.756894    2.805694   -1.048770
 H   -2.819037    2.478024    3.030988
 H   -1.291041   -2.179886    0.005022
 H   -4.806358    0.051394   -2.497586
 H   -5.471958   -2.830750   -3.471161
 H    5.736591   -2.264694    0.868786
 H    5.722562   -0.825164   -1.840231
 H    5.930783    0.268381    1.012239
 H    3.686924    1.162666    0.642146
 H    3.710710   -1.057063    1.523804
 H    1.700142   -0.793448   -0.753288
 H    1.609021   -2.040115    0.515527
 H    5.172022   -3.447584   -1.573038
 H    7.709877   -1.884540   -0.901885
 H    6.984272    1.406500   -0.773845
 H    4.201912    1.293890   -1.709706
