54 
4k6i_ligand_ani-2x.xyz
 O   -9.374019   20.489649   -0.846769
 C   -8.468336   20.916770   -1.756082
 O   -8.673079   21.924837   -2.380629
 C   -7.235868   20.080785   -1.930053
 C   -6.533927   20.208371   -3.129944
 C   -6.745705   19.230156   -0.936120
 C   -5.587627   18.500108   -1.152759
 C   -4.890039   18.612171   -2.362161
 C   -5.381669   19.472242   -3.350456
 C   -3.630736   17.841442   -2.583161
 C   -3.544780   16.560406   -2.216584
 C   -2.463214   18.505857   -3.242985
 C   -2.000995   19.772745   -2.839384
 C   -2.593778   20.533065   -1.677683
 C   -0.933802   20.318675   -3.541580
 C   -1.780411   17.822233   -4.250412
 C   -0.680385   18.357514   -4.915969
 C    0.024038   17.501496   -5.971009
 C    0.337576   16.105765   -5.409199
 C   -0.900592   17.338164   -7.191628
 C    1.359352   18.143757   -6.394063
 C    1.244971   19.649363   -6.612138
 C    0.832009   20.407197   -5.334670
 C   -0.293945   19.671808   -4.602921
 C    0.376503   21.812770   -5.760698
 C    2.038105   20.554137   -4.388324
 H   -9.150823   19.601324   -0.537223
 H   -6.910607   20.898046   -3.877814
 H   -7.239805   19.152321    0.031871
 H   -5.207816   17.846291   -0.369408
 H   -4.842806   19.566283   -4.291542
 H   -4.388088   16.039839   -1.767366
 H   -2.627439   15.994199   -2.360383
 H   -3.522964   21.042561   -1.959146
 H   -2.836940   19.859329   -0.849954
 H   -1.894062   21.292133   -1.316821
 H   -0.575523   21.297731   -3.230680
 H   -2.159826   16.844211   -4.538116
 H    0.950895   16.175730   -4.503373
 H   -0.569545   15.549412   -5.158916
 H    0.890914   15.518974   -6.152262
 H   -1.860515   16.897554   -6.902795
 H   -1.114121   18.298553   -7.674511
 H   -0.437525   16.679105   -7.935475
 H    1.714781   17.646185   -7.305223
 H    2.110493   17.940586   -5.617419
 H    0.503296   19.851920   -7.398062
 H    2.196237   20.061533   -6.971819
 H    1.168311   22.302261   -6.340306
 H   -0.523117   21.759919   -6.384656
 H    0.153453   22.453346   -4.902978
 H    2.451348   19.581234   -4.098779
 H    2.834343   21.132843   -4.871016
 H    1.752501   21.074595   -3.468047
