54 
4k6i_ligand_aiqm1.xyz
 O   -9.472223   20.264716   -1.634676
 C   -8.507081   20.564492   -2.539561
 O   -8.735238   21.351789   -3.416336
 C   -7.197603   19.861452   -2.380159
 C   -6.354567   19.802422   -3.492517
 C   -6.777403   19.296916   -1.175386
 C   -5.540658   18.664684   -1.089393
 C   -4.701745   18.577722   -2.209346
 C   -5.123313   19.167016   -3.410280
 C   -3.382708   17.902832   -2.128359
 C   -3.202052   16.794881   -1.391605
 C   -2.275200   18.519745   -2.909519
 C   -1.780844   19.787124   -2.571329
 C   -2.308238   20.530217   -1.374076
 C   -0.781918   20.334103   -3.368591
 C   -1.747791   17.857107   -4.014207
 C   -0.744413   18.407013   -4.819042
 C   -0.257579   17.618803   -6.036604
 C    0.001663   16.144047   -5.693636
 C   -1.342946   17.677603   -7.128054
 C    1.057829   18.202922   -6.566873
 C    1.018483   19.717102   -6.666942
 C    0.838367   20.389037   -5.299388
 C   -0.259912   19.690825   -4.496440
 C    0.499390   21.865184   -5.557900
 C    2.152599   20.324241   -4.499363
 H   -9.174253   19.543544   -1.073377
 H   -6.685976   20.269969   -4.409952
 H   -7.382657   19.380165   -0.278432
 H   -5.216118   18.255996   -0.141279
 H   -4.477178   19.126092   -4.277666
 H   -4.016418   16.330734   -0.848784
 H   -2.233445   16.313015   -1.344785
 H   -3.332369   20.873084   -1.537831
 H   -2.321394   19.891131   -0.489867
 H   -1.690679   21.402570   -1.159883
 H   -0.396570   21.308514   -3.088217
 H   -2.147858   16.879978   -4.261430
 H    0.720683   16.056839   -4.875627
 H   -0.908575   15.613431   -5.412013
 H    0.417892   15.640719   -6.570958
 H   -2.285938   17.266885   -6.754864
 H   -1.532496   18.701847   -7.456337
 H   -1.035787   17.090368   -7.998464
 H    1.273722   17.753209   -7.540879
 H    1.867977   17.895832   -5.896675
 H    0.190913   20.024958   -7.314988
 H    1.933180   20.101193   -7.128768
 H    1.264041   22.298778   -6.208958
 H   -0.468298   21.958258   -6.056934
 H    0.474010   22.457401   -4.642795
 H    2.466193   19.293363   -4.320449
 H    2.951742   20.837303   -5.043024
 H    2.035458   20.810329   -3.526781
