66 
4k72_ligand_aiqm1.xyz
 N    0.007804   -2.868324    0.427649
 C   -1.418091   -2.519533    0.709931
 C   -1.874640   -1.795077   -0.587495
 O   -1.212626   -1.971021   -1.602055
 C   -1.484924   -1.714093    2.007096
 C   -2.872574   -1.594877    2.590770
 O   -2.838276   -1.037235    3.797676
 O   -3.885359   -1.941670    2.032208
 N   -2.925554   -0.985418   -0.505694
 C   -3.235240   -0.085832   -1.617816
 C   -2.104962    0.934875   -1.885774
 O   -1.993342    1.441622   -2.983606
 C   -4.562121    0.602384   -1.337678
 O   -4.470731    1.117913   -0.013436
 N   -1.278241    1.207460   -0.836309
 C    0.071941    1.675622   -1.059314
 C    1.041046    0.563661   -0.645135
 O    0.709680   -0.314646    0.165735
 C    0.381296    2.993712   -0.314799
 C    0.279690    2.831952    1.204193
 C   -0.535473    4.094202   -0.841599
 C    0.996750    3.945697    1.961814
 N    2.264330    0.618171   -1.189344
 C    3.361726   -0.295929   -0.872563
 C    2.994958   -1.677489   -1.425094
 O    2.447256   -2.558229   -0.802876
 C    3.755460   -0.324654    0.614320
 C    4.031075    1.099468    1.106979
 C    4.972661   -1.232592    0.792862
 C    4.262021    1.190997    2.610443
 O    3.314602   -1.781965   -2.714432
 H    0.048884   -3.220929   -0.531142
 H    0.568852   -1.990203    0.402358
 H    0.408785   -3.545287    1.070018
 H   -1.992278   -3.439161    0.805218
 H   -0.859825   -2.185248    2.768290
 H   -1.087846   -0.706629    1.867453
 H   -3.753986   -0.971213    4.101604
 H   -3.511676   -0.965430    0.316067
 H   -3.325423   -0.652366   -2.542735
 H   -4.711737    1.393387   -2.073082
 H   -5.371140   -0.126853   -1.417205
 H   -5.251110    1.636019    0.176373
 H   -1.416758    0.691421    0.016368
 H    0.180111    1.847347   -2.130361
 H    1.417802    3.247945   -0.569020
 H    0.708107    1.865726    1.497683
 H   -0.774908    2.806010    1.487784
 H   -0.285466    5.055899   -0.397294
 H   -1.574744    3.869883   -0.598891
 H   -0.459508    4.190181   -1.924988
 H    0.610685    4.927585    1.689664
 H    2.067274    3.935545    1.744798
 H    0.876052    3.828400    3.037747
 H    2.450638    1.359587   -1.842942
 H    4.213826    0.047879   -1.452647
 H    2.915073   -0.736242    1.179472
 H    3.185912    1.745703    0.847518
 H    4.901449    1.493049    0.573914
 H    5.279074   -1.267882    1.835042
 H    5.816700   -0.857572    0.210679
 H    4.762308   -2.254870    0.473125
 H    3.405169    0.806703    3.166865
 H    4.405959    2.229405    2.901427
 H    5.144893    0.634760    2.923210
 H    3.033564   -2.651758   -3.026967
