34 
4k77_ligand_xtb.xyz
 C   16.650526    3.332540    1.527863
 C   17.144478    2.079623    1.443336
 N   16.576156    1.152847    0.625896
 C   15.471081    1.364101   -0.186193
 O   15.051148    0.461113   -0.874562
 C   14.925409    2.727884   -0.100732
 C   15.511218    3.683580    0.742208
 C   14.884600    4.972018    0.733275
 N   13.823785    5.204753   -0.034943
 C   13.372863    4.209876   -0.784058
 N   13.855974    2.996898   -0.861780
 N   15.340454    5.982303    1.492474
 C   14.752848    7.302659    1.527555
 C   14.254736    7.631045    2.936883
 C   13.626451    9.021151    2.963720
 C   14.630863   10.071739    2.500231
 C   15.136485    9.742666    1.098995
 C   15.766815    8.353535    1.069659
 H   17.120693    4.046273    2.183610
 H   18.002802    1.754798    2.011889
 H   16.965987    0.219531    0.580650
 H   12.508894    4.434050   -1.396399
 H   16.142112    5.824953    2.080561
 H   13.908671    7.275595    0.833493
 H   15.095841    7.597082    3.635145
 H   13.525040    6.881466    3.248501
 H   13.284686    9.251447    3.974580
 H   12.756821    9.034862    2.303907
 H   15.474463   10.099402    3.194075
 H   14.163881   11.058137    2.503733
 H   15.869812   10.486679    0.782211
 H   14.301923    9.773115    0.395877
 H   16.106915    8.115121    0.060244
 H   16.635071    8.332560    1.734394
