19 
4keq_ligand_aiqm1.xyz
 C    1.720663    7.091107  -12.797912
 C    0.698457    6.171461  -12.199588
 N   -0.507151    6.691925  -11.939039
 C   -1.462128    5.923552  -11.404908
 C   -1.221078    4.590809  -11.116507
 C   -2.094457    3.547486  -10.533648
 O   -3.230185    3.607116  -10.167557
 O   -1.352570    2.391944  -10.462793
 C   -0.026248    2.588379  -10.963206
 C    0.018113    4.032407  -11.378113
 C    1.008750    4.823492  -11.930113
 O    2.266973    4.379893  -12.230177
 H    1.340979    7.491408  -13.737741
 H    1.878611    7.938876  -12.131572
 H    2.663988    6.578575  -12.971004
 H   -2.423096    6.375426  -11.207713
 H    0.129491    1.901129  -11.796136
 H    0.678331    2.352955  -10.164153
 H    2.342259    3.452261  -11.996618
