20 
4kif_ligand_aiqm1.xyz
 C    9.114359  101.945368  159.956270
 O    7.911967  101.370977  159.974967
 O    9.336588  103.045719  160.378981
 C   10.202911  101.046635  159.331150
 O    9.871804   99.950587  158.934564
 C   11.590201  101.634181  159.276961
 C   12.602525  100.712676  158.659241
 C   13.307855   99.801862  159.448632
 C   14.223027   98.924466  158.872226
 C   14.443146   98.947851  157.497859
 C   13.744736   99.852861  156.703438
 C   12.829937  100.729549  157.281468
 H    8.019897  100.492898  159.575007
 H   11.858591  101.907377  160.298488
 H   11.513752  102.577316  158.733962
 H   13.133142   99.776663  160.518876
 H   14.758138   98.222834  159.498724
 H   15.151132   98.264542  157.049221
 H   13.905742   99.877361  155.633574
 H   12.281949  101.428879  156.659192
