30 
4kij_ligand_xtb.xyz
 O  -27.000584  -17.652520   53.605656
 C  -28.027489  -18.171008   54.305703
 C  -28.459750  -19.480635   54.038988
 O  -27.809454  -20.167246   53.071475
 C  -29.520269  -20.013831   54.754823
 C  -30.150137  -19.274352   55.755845
 C  -31.282451  -19.782284   56.581043
 O  -31.637248  -19.242102   57.592917
 O  -31.921050  -20.879119   56.136572
 C  -29.707179  -17.987111   56.039440
 C  -28.671832  -17.435811   55.307971
 O  -28.137116  -16.184209   55.547055
 C  -28.930484  -15.151197   55.956226
 C  -28.307880  -14.147706   56.689115
 C  -30.275250  -15.025265   55.612678
 C  -30.995584  -13.915672   56.020814
 C  -30.392468  -12.915331   56.760483
 C  -29.046717  -13.042086   57.079331
 N  -28.393657  -11.998535   57.837248
 O  -29.067331  -11.053882   58.183934
 O  -27.213695  -12.132217   58.074755
 H  -26.812083  -16.764258   53.942367
 H  -28.164771  -21.060528   52.990366
 H  -29.809693  -21.035076   54.536845
 H  -31.585908  -21.188541   55.285995
 H  -30.181540  -17.441252   56.839883
 H  -27.264276  -14.225864   56.950762
 H  -30.752423  -15.791024   55.020338
 H  -32.036735  -13.832550   55.752181
 H  -30.936547  -12.043788   57.087892
