34 
4kiu_ligand_aiqm1.xyz
 O   -0.639787   33.260870   76.430963
 C   -1.618629   33.944434   76.523147
 O   -2.110671   34.591816   75.442168
 C   -2.377059   34.129408   77.807633
 C   -3.101698   35.287876   78.067094
 C   -2.321377   33.108395   78.753246
 C   -3.001371   33.247668   79.955290
 C   -2.928194   32.106525   80.931924
 O   -2.688409   30.979461   80.605070
 O   -3.145929   32.413047   82.231275
 C   -3.745507   34.401240   80.224292
 C   -3.792030   35.425010   79.277283
 O   -4.479975   36.589292   79.436013
 C   -5.156509   36.809857   80.663238
 C   -6.436442   36.015858   80.776516
 C   -7.027411   35.840465   82.027961
 C   -7.056357   35.481358   79.642561
 C   -8.254308   34.774076   79.758447
 C   -8.851109   34.595827   81.002316
 C   -8.219805   35.138347   82.111233
 N   -8.838080   34.962959   83.437480
 O   -8.246707   35.430641   84.397198
 O   -9.898568   34.363144   83.487031
 H   -2.955019   34.997297   75.660015
 H   -3.124057   36.120230   77.371640
 H   -1.752793   32.211796   78.553237
 H   -3.207260   33.366595   82.338678
 H   -4.314257   34.482589   81.140705
 H   -5.377586   37.875468   80.660261
 H   -4.501705   36.607419   81.515524
 H   -6.584825   36.243069   82.929118
 H   -6.590045   35.623451   78.675298
 H   -8.722960   34.361586   78.875079
 H   -9.776562   34.055027   81.128066
