34 
4kiu_ligand_dft.xyz
 O   -5.820240    0.190500   -0.217528
 C   -4.937827   -0.617235   -0.325069
 O   -5.204072   -1.880245   -0.719907
 C   -3.498081   -0.297389   -0.030612
 C   -2.605418   -1.266676    0.415401
 C   -3.080402    1.024865   -0.181233
 C   -1.765852    1.362999    0.110173
 C   -1.344040    2.790529   -0.103969
 O   -1.855078    3.507276   -0.920969
 O   -0.336422    3.241812    0.673908
 C   -0.856951    0.391886    0.547387
 C   -1.281691   -0.926032    0.702972
 O   -0.497301   -1.953746    1.120625
 C    0.811971   -1.676328    1.579939
 C    1.791144   -1.351888    0.470749
 C    2.903369   -0.562185    0.745039
 C    1.610936   -1.857925   -0.817588
 C    2.530346   -1.578684   -1.823718
 C    3.648508   -0.796022   -1.558503
 C    3.811905   -0.304235   -0.271859
 N    4.984592    0.531302    0.029257
 O    5.087086    0.971345    1.163840
 O    5.781734    0.731205   -0.871981
 H   -4.384408   -2.351157   -0.919741
 H   -2.908299   -2.294758    0.593777
 H   -3.776390    1.781295   -0.525162
 H   -0.162180    2.621636    1.393951
 H    0.184724    0.652291    0.701430
 H    1.117843   -2.592588    2.092295
 H    0.792201   -0.870351    2.325971
 H    3.077992   -0.143802    1.730540
 H    0.737975   -2.466446   -1.031171
 H    2.375936   -1.972125   -2.822813
 H    4.379300   -0.562367   -2.322448
