35 
4kiw_ligand_xtb.xyz
 O   15.858998   20.919219   72.657973
 C   14.754176   21.342920   73.296578
 O   14.735030   22.403269   73.856218
 C   13.578356   20.420559   73.274448
 C   12.687966   20.516448   74.334738
 C   13.354824   19.518763   72.237696
 C   12.236162   18.689499   72.297406
 C   11.938153   17.677832   71.238891
 O   11.385469   16.639230   71.470330
 O   12.322628   17.994766   69.989984
 C   11.373486   18.753277   73.379240
 C   11.569393   19.680744   74.409517
 N   10.665653   19.754821   75.426309
 C   10.814304   20.603871   76.576831
 C   11.939284   20.219308   77.516189
 C   12.307316   21.104716   78.519061
 C   12.608897   19.005842   77.411644
 C   13.634761   18.679899   78.285990
 C   14.003873   19.557547   79.286534
 C   13.327718   20.766395   79.394780
 N   13.690224   21.691791   80.443537
 O   13.046827   22.714291   80.536155
 O   14.610297   21.384303   81.168772
 H   15.772088   20.018964   72.317636
 H   12.902133   21.241849   75.102134
 H   14.038979   19.456163   71.400346
 H   12.680505   18.890324   69.926338
 H   10.531012   18.078110   73.404638
 H    9.984394   19.015430   75.476255
 H    9.871938   20.582979   77.132155
 H   10.970679   21.636765   76.244566
 H   11.811888   22.057544   78.632352
 H   12.333444   18.305000   76.637989
 H   14.144537   17.734606   78.184287
 H   14.796607   19.328756   79.981380
