55 
4kn0_ligand_xtb.xyz
 N    4.942783   -1.149981    3.421309
 C    6.222657   -1.463778    3.489965
 N    6.655922   -2.043616    4.624241
 N    7.162288   -1.284192    2.533613
 C    6.776691   -0.749161    1.397114
 N    7.665266   -0.556029    0.411932
 C    5.406835   -0.366920    1.192214
 N    5.002738    0.176057    0.038133
 C    3.729742    0.506536   -0.049238
 C    2.848212    0.280010    1.028358
 N    3.219398   -0.257951    2.158813
 C    4.519816   -0.599163    2.278580
 C    3.244645    1.100038   -1.348552
 N    2.145962    0.341923   -1.910198
 C    2.494386   -1.023719   -2.228715
 C   -1.872787    1.316118   -1.127529
 C   -0.893759    2.304919   -1.228541
 C    0.423749    1.991505   -1.461602
 C    0.835044    0.658741   -1.616546
 C   -0.158101   -0.328450   -1.539697
 C   -1.477446   -0.007722   -1.297940
 C   -3.264034    1.753120   -0.869065
 O   -3.628672    2.909217   -1.004299
 N   -4.131614    0.777436   -0.489838
 C   -5.485582    1.088793   -0.115462
 C   -5.790132    0.565433    1.280671
 O   -4.712549    0.567348    2.060471
 O   -6.875826    0.210330    1.659857
 C   -6.522647    0.582405   -1.132031
 C   -6.237944   -0.855330   -1.594629
 C   -6.119323   -1.764369   -0.399114
 O   -7.256393   -2.390658   -0.123845
 O   -5.115373   -1.906587    0.255971
 H    7.637875   -2.208815    4.743253
 H    6.016555   -2.121909    5.393356
 H    7.346702   -0.119401   -0.434762
 H    8.629584   -0.795806    0.552336
 H    1.802002    0.549873    0.947104
 H    2.937277    2.131030   -1.174939
 H    4.077431    1.105469   -2.059785
 H    3.517460   -1.037672   -2.603004
 H    2.438031   -1.696175   -1.363644
 H    1.837137   -1.396368   -3.013744
 H   -1.199229    3.334702   -1.120502
 H    1.135640    2.797982   -1.545298
 H    0.099508   -1.368695   -1.652776
 H   -2.194790   -0.814453   -1.254490
 H   -3.803082   -0.141376   -0.234373
 H   -5.543674    2.188215   -0.070570
 H   -4.925067    0.224590    2.942686
 H   -6.513867    1.233426   -2.005730
 H   -7.505623    0.629821   -0.661575
 H   -5.300700   -0.877090   -2.151790
 H   -7.055079   -1.200837   -2.226109
 H   -7.188444   -2.899417    0.699755
