60 
4knr_ligand_ani-2x.xyz
 C   43.329809   58.810842   23.127812
 O   42.443361   59.729507   22.527485
 C   42.327754   59.678253   21.178292
 C   42.997421   58.811578   20.346067
 C   42.782160   58.844971   18.938629
 C   41.891650   59.792531   18.396765
 C   41.214156   60.678390   19.269086
 C   41.414914   60.631669   20.619642
 O   40.789907   61.455250   21.499975
 N   41.650147   59.883183   17.056466
 C   42.306216   59.047596   16.291407
 N   43.198269   58.108491   16.689454
 C   43.418018   57.980773   17.978049
 N   44.273398   56.997843   18.402302
 C   44.976518   56.090228   17.584678
 C   45.198437   54.789136   18.043941
 C   45.877184   53.868710   17.261494
 C   46.367616   54.235110   16.006951
 C   46.214247   55.551606   15.582173
 C   45.505768   56.463888   16.348539
 N   47.013962   53.271594   15.208642
 C   47.135088   53.292223   13.844435
 O   46.757033   54.220509   13.143734
 C   47.797085   52.091236   13.228331
 C   48.361131   52.262442   11.964080
 C   49.003010   51.205128   11.330137
 C   49.066869   49.959405   11.949037
 C   48.480612   49.774149   13.198906
 C   47.846772   50.834642   13.837075
 C   42.018334   59.086400   14.804411
 C   43.185685   58.674423   13.933354
 C   43.904761   59.628852   13.215729
 C   44.974907   59.257467   12.405608
 C   45.331192   57.919118   12.293360
 C   44.618510   56.955731   13.004671
 C   43.562612   57.333771   13.828185
 H   43.033896   57.774579   22.919702
 H   44.361807   58.970450   22.789824
 H   43.270440   58.994288   24.201225
 H   43.714022   58.108167   20.761429
 H   40.531417   61.394389   18.819325
 H   40.207570   62.046370   21.004387
 H   44.251256   56.777758   19.386339
 H   44.818104   54.484013   19.016887
 H   46.015186   52.852878   17.626194
 H   46.637259   55.845840   14.631625
 H   45.343700   57.468788   15.973860
 H   47.395616   52.477189   15.696986
 H   48.282121   53.238715   11.493746
 H   49.450172   51.351062   10.350095
 H   49.566847   49.130828   11.454525
 H   48.521109   48.801999   13.684475
 H   47.363921   50.654900   14.796507
 H   41.675676   60.098336   14.566513
 H   41.164686   58.418692   14.617241
 H   43.620897   60.677696   13.292653
 H   45.524717   60.016767   11.855323
 H   46.160658   57.621977   11.655746
 H   44.911718   55.910239   12.938410
 H   43.062693   56.581637   14.434381
