60 
4knr_ligand_xtb.xyz
 C   43.288634   58.342732   23.060616
 O   42.555093   59.420171   22.539648
 C   42.443937   59.540105   21.189755
 C   42.993700   58.689952   20.263146
 C   42.816920   58.904003   18.882187
 C   42.055974   60.017838   18.449141
 C   41.500488   60.882775   19.410522
 C   41.681591   60.661146   20.748194
 O   41.162780   61.467683   21.704525
 N   41.844963   60.281968   17.142665
 C   42.363401   59.452320   16.275230
 N   43.098958   58.375442   16.564468
 C   43.347245   58.089801   17.827496
 N   44.117172   57.009996   18.128036
 C   44.782364   56.115819   17.295911
 C   45.534596   55.108567   17.903585
 C   46.230642   54.194467   17.141907
 C   46.195740   54.261387   15.749847
 C   45.440440   55.260520   15.143468
 C   44.742860   56.175002   15.905118
 N   46.919654   53.307469   15.028106
 C   47.123707   53.224894   13.680770
 O   46.701249   54.019441   12.866097
 C   47.956778   52.050762   13.278270
 C   48.795244   52.198202   12.177164
 C   49.581777   51.145222   11.749925
 C   49.524607   49.927507   12.407977
 C   48.672981   49.764944   13.488209
 C   47.892832   50.820397   13.926023
 C   42.108269   59.719719   14.815059
 C   43.056470   58.953339   13.939631
 C   44.379337   59.361199   13.818727
 C   45.274935   58.632786   13.056858
 C   44.859316   57.486645   12.399797
 C   43.541812   57.076828   12.509039
 C   42.647881   57.804703   13.275706
 H   42.850617   57.379698   22.775226
 H   44.336648   58.375575   22.742260
 H   43.240158   58.450901   24.142783
 H   43.567658   57.842736   20.606451
 H   40.924417   61.725723   19.058564
 H   40.670527   62.186168   21.287735
 H   44.261282   56.839676   19.112625
 H   45.576371   55.042167   18.982749
 H   46.809271   53.421922   17.630265
 H   45.403702   55.326000   14.069915
 H   44.163665   56.944801   15.428025
 H   47.396012   52.623530   15.599807
 H   48.816094   53.150874   11.669883
 H   50.236411   51.270970   10.900460
 H   50.135187   49.101720   12.074051
 H   48.613304   48.810141   13.989899
 H   47.210342   50.667177   14.750926
 H   42.195696   60.795731   14.651832
 H   41.074979   59.435489   14.599872
 H   44.707652   60.252782   14.334374
 H   46.302104   58.958310   12.976821
 H   45.559145   56.910360   11.813500
 H   43.211847   56.182325   12.001125
 H   41.622565   57.473678   13.364329
