53 
4knx_ligand_ani-2x.xyz
 C  -10.966702   89.662677  131.474051
 O  -11.845137   90.680585  131.052193
 C  -12.028151   90.825874  129.718587
 C  -11.433640   90.055923  128.746535
 C  -11.730054   90.267429  127.368111
 C  -12.610697   91.299901  127.002692
 C  -13.207144   92.090850  128.014398
 C  -12.921594   91.872043  129.333118
 O  -13.501193   92.568681  130.366519
 C  -13.915350   93.899737  130.116461
 C  -15.387603   94.008977  129.707641
 O  -16.073752   92.857491  129.695184
 O  -15.881063   95.065827  129.424360
 N  -12.913753   91.576695  125.702610
 C  -12.326436   90.819295  124.815383
 N  -11.464593   89.794933  125.022188
 C  -11.191684   89.495439  126.273917
 N  -10.387477   88.423994  126.568797
 C   -9.746961   87.497519  125.720176
 C   -9.542686   86.203154  126.208572
 C   -8.890296   85.252877  125.442043
 C   -8.405180   85.576220  124.171987
 C   -8.591869   86.871208  123.688391
 C   -9.256246   87.819119  124.453964
 N   -7.757494   84.564018  123.436424
 C   -7.119076   84.664600  122.225488
 O   -7.024536   85.698957  121.584291
 C   -6.488754   83.391765  121.729700
 C   -5.422420   83.520733  120.840323
 C   -4.780215   82.392867  120.343720
 C   -5.216092   81.124302  120.717804
 C   -6.299173   80.988713  121.583204
 C   -6.934533   82.117692  122.088813
 H  -11.306078   88.675496  131.134081
 H   -9.945071   89.840472  131.113507
 H  -10.973490   89.691362  132.564526
 H  -10.711498   89.295667  129.027363
 H  -13.901880   92.854307  127.687586
 H  -13.297554   94.381184  129.349692
 H  -13.781971   94.459140  131.047700
 H  -15.484973   92.151950  130.013521
 H  -12.547896   91.030793  123.770742
 H  -10.403779   88.144605  127.537040
 H   -9.907860   85.932985  127.197261
 H   -8.754668   84.249303  125.839083
 H   -8.214449   87.131203  122.708807
 H   -9.398661   88.820455  124.063582
 H   -7.644284   83.691626  123.929394
 H   -5.113773   84.521426  120.549529
 H   -3.942122   82.502842  119.660324
 H   -4.716778   80.240642  120.329237
 H   -6.647178   80.000452  121.874202
 H   -7.801383   81.990596  122.735177
