38 
4kp6_ligand_ani-2x.xyz
 C  -41.488329   90.896423  116.209204
 C  -39.929745   90.758146  114.624725
 C  -39.520069   89.886595  116.618847
 N  -39.586360   92.060676  111.358864
 C  -38.496714   91.260588  111.558920
 N  -38.696166   89.228311  117.456774
 C  -43.763075   91.742225  115.696673
 C  -44.939737   92.231669  116.566958
 C  -46.033945   92.984523  115.816327
 C  -44.164424   90.665445  114.654198
 C  -44.632670   89.347011  115.257350
 N  -42.863074   93.781093  114.270718
 C  -43.243485   92.901900  114.918922
 N  -42.715252   91.300318  116.618074
 N  -40.712594   90.272015  117.105801
 C  -37.385283   88.769291  117.050272
 N  -39.060983   90.096287  115.367237
 N  -41.148673   91.168618  114.940663
 N  -39.553987   91.113573  113.329050
 N  -38.426760   90.671157  112.730135
 C  -40.232145   91.947784  112.494032
 H  -37.732371   91.118496  110.805415
 H  -39.041541   89.079398  118.390864
 H  -44.506043   92.875668  117.340206
 H  -45.365391   91.364639  117.087050
 H  -45.638724   93.888549  115.343507
 H  -46.486542   92.367500  115.032055
 H  -46.831703   93.282481  116.503726
 H  -43.298480   90.488935  114.008031
 H  -44.951125   91.093816  114.020651
 H  -43.841663   88.875471  115.849206
 H  -45.505999   89.478809  115.905855
 H  -44.915533   88.648282  114.463875
 H  -43.006014   90.921067  117.506879
 H  -37.461819   88.072604  116.209240
 H  -36.764441   89.609325  116.722240
 H  -36.911151   88.270984  117.897695
 H  -41.156589   92.423329  112.805459
