38 
4kp6_ligand_xtb.xyz
 C  -41.510811   90.755781  116.161628
 C  -39.925424   90.786510  114.589528
 C  -39.485535   89.879193  116.583473
 N  -39.527818   92.050161  111.328302
 C  -38.410665   91.318979  111.566519
 N  -38.651051   89.256630  117.417904
 C  -43.748085   91.654346  115.688854
 C  -44.846742   92.281899  116.569003
 C  -45.964659   92.948095  115.775664
 C  -44.265452   90.595281  114.687518
 C  -44.949721   89.412562  115.361358
 N  -42.758352   93.605439  114.285965
 C  -43.134452   92.720273  114.904385
 N  -42.747498   91.078728  116.571049
 N  -40.714429   90.148164  117.035452
 C  -37.294476   88.910367  117.087018
 N  -39.040960   90.192766  115.355975
 N  -41.174456   91.083634  114.907944
 N  -39.532694   91.145661  113.310478
 N  -38.375675   90.764101  112.746923
 C  -40.212808   91.927417  112.429582
 H  -37.624755   91.205932  110.848333
 H  -39.007938   89.047591  118.336791
 H  -44.370484   93.027435  117.211267
 H  -45.262822   91.503004  117.211483
 H  -45.557837   93.680486  115.082446
 H  -46.540235   92.217709  115.213131
 H  -46.640984   93.459054  116.456737
 H  -43.399752   90.241783  114.123366
 H  -44.946125   91.075965  113.983694
 H  -44.285306   88.944416  116.084621
 H  -45.863318   89.715298  115.867345
 H  -45.210848   88.669538  114.611834
 H  -43.013424   90.787471  117.497182
 H  -37.117772   89.217643  116.058805
 H  -36.594439   89.425606  117.747977
 H  -37.142696   87.833193  117.179248
 H  -41.158098   92.374887  112.656916
