42 
4kpx_ligand_xtb.xyz
 C   -6.666135   19.163792   65.478971
 C   -5.301825   18.926576   65.423158
 C   -4.524800   19.310624   66.506758
 N   -5.018273   19.885130   67.587567
 C   -6.322099   20.114693   67.640501
 C   -7.191464   19.775432   66.605401
 C   -6.856913   20.727597   68.909101
 O   -6.759762   20.192042   69.987478
 N   -7.483543   21.917206   68.667811
 C   -8.105631   22.780011   69.575505
 C   -8.635807   23.973324   69.089039
 C   -9.268896   24.866811   69.928373
 C   -9.382719   24.579074   71.285418
 C   -8.853007   23.385519   71.772302
 C   -8.221204   22.491668   70.932964
 N  -10.014470   25.433091   72.196917
 C  -10.558902   26.659592   71.976744
 O  -10.559387   27.241878   70.911382
 C  -11.169870   27.284888   73.193708
 C  -11.236892   28.686091   73.232614
 C  -11.801044   29.343172   74.295342
 C  -12.350155   28.636235   75.376412
 C  -12.301387   27.226599   75.324805
 C  -11.715774   26.569468   74.237977
 N  -12.839994   26.422599   76.368322
 O  -13.378054   26.992442   77.315263
 O  -12.740276   25.218964   76.285616
 O  -12.882047   29.329342   76.372707
 H   -7.310527   18.877861   64.660127
 H   -4.853143   18.454067   64.563508
 H   -3.454578   19.152441   66.514417
 H   -8.250560   19.968127   66.692825
 H   -7.461039   22.257046   67.715432
 H   -8.550893   24.206672   68.036947
 H   -9.672657   25.786067   69.539970
 H   -8.937194   23.151927   72.824324
 H   -7.813861   21.573717   71.320805
 H  -10.022462   25.085749   73.145783
 H  -10.833129   29.234699   72.395335
 H  -11.847791   30.419556   74.331771
 H  -11.746608   25.489266   74.248610
 H  -13.243326   28.709346   77.050590
