42 
4kpx_ligand_dft.xyz
 C   -8.135367   -0.582553   -1.276535
 C   -9.027778   -0.183755   -0.290852
 C   -8.526881    0.496895    0.818017
 N   -7.239716    0.789237    0.988533
 C   -6.387210    0.389358    0.041715
 C   -6.784533   -0.295731   -1.107400
 C   -4.940002    0.776597    0.265676
 O   -4.624101    1.885780    0.646768
 N   -4.058239   -0.236650   -0.022512
 C   -2.651374   -0.217799    0.046670
 C   -1.971913   -1.405232   -0.234076
 C   -0.586893   -1.478168   -0.197608
 C    0.151153   -0.337033    0.125480
 C   -0.527537    0.850917    0.404846
 C   -1.912361    0.923236    0.370960
 N    1.561258   -0.307576    0.179067
 C    2.440024   -1.340339    0.001957
 O    2.111583   -2.499500   -0.197127
 C    3.891958   -0.963282    0.084805
 C    4.804186   -1.979255    0.425888
 C    6.154618   -1.730329    0.509428
 C    6.670647   -0.452093    0.234569
 C    5.753119    0.554822   -0.130674
 C    4.381351    0.295517   -0.206330
 N    6.201271    1.893062   -0.450964
 O    7.415385    2.133027   -0.389767
 O    5.377800    2.732144   -0.762989
 O    7.984541   -0.284600    0.332853
 H   -8.481616   -1.101562   -2.165074
 H  -10.090265   -0.385734   -0.375648
 H   -9.196667    0.827065    1.608899
 H   -6.058617   -0.569454   -1.867199
 H   -4.466662   -1.138807   -0.218875
 H   -2.533208   -2.302041   -0.487063
 H   -0.079280   -2.407825   -0.410680
 H    0.033302    1.748316    0.657065
 H   -2.421917    1.848905    0.597321
 H    1.952744    0.573574    0.475809
 H    4.413742   -2.972794    0.619087
 H    6.859944   -2.507362    0.781786
 H    3.741891    1.108025   -0.532560
 H    8.181674    0.647739    0.101155
