42 
4kpx_ligand_ani-2x.xyz
 C   -6.315822   19.483768   65.292408
 C   -5.037149   18.975809   65.485848
 C   -4.488944   19.040284   66.764628
 N   -5.121931   19.559148   67.814559
 C   -6.340374   20.062815   67.614796
 C   -6.980851   20.046355   66.374803
 C   -7.014254   20.639642   68.848500
 O   -6.963478   20.094001   69.931404
 N   -7.656534   21.829927   68.603557
 C   -8.268407   22.698300   69.531372
 C   -8.823026   23.885496   69.046030
 C   -9.449666   24.791508   69.887764
 C   -9.527817   24.516207   71.253656
 C   -8.972454   23.329646   71.739287
 C   -8.347173   22.422606   70.897544
 N  -10.152648   25.373751   72.180076
 C  -10.714174   26.605661   71.958215
 O  -10.752584   27.157111   70.870322
 C  -11.270440   27.271268   73.181367
 C  -11.388602   28.664902   73.157683
 C  -11.871571   29.362540   74.247973
 C  -12.276650   28.691332   75.410044
 C  -12.182667   27.282586   75.411916
 C  -11.690860   26.582367   74.312385
 N  -12.589691   26.509967   76.570532
 O  -13.015337   27.118632   77.559004
 O  -12.499135   25.301092   76.529899
 O  -12.725743   29.436750   76.421422
 H   -6.784479   19.455339   64.312193
 H   -4.473779   18.534631   64.669237
 H   -3.491861   18.650075   66.961130
 H   -7.990480   20.434002   66.266624
 H   -7.569781   22.204381   67.671037
 H   -8.770951   24.112327   67.983143
 H   -9.873784   25.707643   69.500127
 H   -9.031339   23.101890   72.801799
 H   -7.921327   21.509180   71.289816
 H  -10.074066   25.085454   73.142959
 H  -11.088982   29.187370   72.254274
 H  -11.954405   30.444185   74.237818
 H  -11.702248   25.500575   74.375079
 H  -12.972638   28.839879   77.156369
