53 
4kql_ligand_ani-2x.xyz
 C   41.682471   56.948478   22.854811
 O   41.179714   58.225457   22.532454
 C   41.228727   58.608418   21.229294
 C   40.734403   59.883481   20.959723
 C   40.708325   60.376036   19.655446
 C   41.244981   59.583089   18.629619
 C   41.784176   58.335365   18.903088
 C   41.747386   57.819206   20.203931
 C   42.362031   57.581446   17.733593
 O   42.029661   57.848338   16.589960
 N   43.285452   56.623594   18.065961
 C   44.015084   55.775193   17.210415
 C   44.943691   54.907890   17.791819
 C   45.697701   54.032131   17.025677
 C   45.528310   54.013894   15.640229
 C   44.600402   54.882050   15.059023
 C   43.845237   55.756394   15.825422
 N   46.248252   53.152254   14.786637
 C   47.231387   52.251391   15.120046
 O   47.567801   51.987283   16.255841
 C   47.889023   51.613319   13.907915
 C   47.135844   51.162036   12.822969
 C   47.799255   50.568118   11.756426
 C   49.183681   50.462317   11.807553
 C   49.840049   50.943432   12.937901
 N   49.215769   51.497353   13.975044
 C   40.096267   61.687572   19.349894
 C   39.394796   61.888684   18.213329
 N   38.810937   63.082382   17.887191
 C   38.912738   64.222007   18.671277
 O   38.415768   65.282223   18.360300
 N   39.631543   64.007919   19.825558
 C   40.225928   62.823535   20.286260
 O   40.788336   62.826475   21.364277
 H   41.096750   56.153337   22.375537
 H   42.735573   56.847583   22.561902
 H   41.596734   56.854778   23.938301
 H   40.368927   60.493334   21.777212
 H   41.283149   59.929138   17.600961
 H   42.079247   56.803650   20.400980
 H   43.564397   56.590076   19.034415
 H   45.082142   54.909194   18.871218
 H   46.413098   53.368054   17.491236
 H   44.456100   54.877077   13.980573
 H   43.130979   56.424402   15.363933
 H   46.110033   53.323554   13.802316
 H   46.051962   51.242600   12.828098
 H   47.244054   50.206597   10.894851
 H   49.747573   50.014420   10.994976
 H   50.923402   50.876421   13.020958
 H   39.234132   61.088040   17.496461
 H   38.300572   63.190424   17.023471
 H   39.727454   64.806759   20.438516
