58 
4ks3_ligand_aiqm1.xyz
 C   -3.539605   -1.242036   -2.099719
 C   -4.295096   -0.359636   -1.110807
 C   -3.883191   -0.515588    0.350860
 C   -4.847662    0.224195    1.269990
 C   -4.533454    0.086921    2.754010
 O   -2.577951    0.049671    0.559404
 C   -1.513978   -0.883702    0.660558
 C   -0.205265   -0.080718    0.603515
 N   -0.116430    0.827712   -0.525798
 C   -0.118868    0.425121   -1.820161
 C   -0.182975    1.541534   -2.833189
 O   -0.070539   -0.754409   -2.143632
 C   -1.565678   -1.647808    1.986301
 C   -0.266058   -2.336638    2.323460
 C   -0.337126   -3.352048    3.407541
 O    0.847217   -3.964456    3.630341
 O   -1.331624   -3.620456    4.034840
 C    0.897334   -2.048766    1.727416
 C    0.982352   -1.051492    0.606987
 N    2.238006   -0.321451    0.650256
 C    3.270199   -0.384864   -0.219014
 N    2.479250    0.579625    1.608767
 N    3.659934    1.093564    1.378688
 C    4.188009    0.525888    0.255200
 C    5.516485    0.944456   -0.278415
 C    5.432661    2.160370   -1.207297
 C    4.937062    3.404058   -0.502832
 O    4.939062    4.461737   -1.463972
 H   -3.612740   -2.295740   -1.817722
 H   -3.967725   -1.143604   -3.098901
 H   -2.484929   -0.983160   -2.167175
 H   -4.178556    0.693559   -1.379529
 H   -5.363541   -0.582561   -1.174940
 H   -3.868346   -1.583352    0.610719
 H   -4.836371    1.277891    0.980307
 H   -5.854122   -0.150173    1.068150
 H   -4.514166   -0.961914    3.057504
 H   -5.286098    0.592886    3.357765
 H   -3.564013    0.521775    2.993129
 H   -1.539705   -1.590599   -0.173067
 H   -0.153807    0.535369    1.500591
 H   -0.252439    1.805565   -0.341062
 H    0.243024    2.464975   -2.442962
 H    0.346985    1.236133   -3.730690
 H   -1.225157    1.722150   -3.095859
 H   -1.813246   -0.948788    2.790161
 H   -2.373955   -2.380318    1.971071
 H    0.691571   -4.587128    4.350407
 H    1.820606   -2.537613    2.017567
 H    0.995571   -1.600187   -0.331956
 H    3.259488   -1.040636   -1.072319
 H    5.975110    0.112033   -0.816969
 H    6.165460    1.182872    0.567615
 H    6.423524    2.368213   -1.617252
 H    4.768561    1.949874   -2.051320
 H    3.927410    3.248050   -0.108260
 H    5.593691    3.643859    0.339102
 H    4.675845    5.269886   -1.022097
