58 
4ks3_ligand_ani-2x.xyz
 C   -3.556083   -1.427855   -1.989917
 C   -4.203999   -0.359213   -1.113396
 C   -3.823336   -0.420176    0.368883
 C   -4.756098    0.462998    1.194085
 C   -4.478653    0.420104    2.694049
 O   -2.496879    0.045318    0.585409
 C   -1.461448   -0.924796    0.664936
 C   -0.138689   -0.161903    0.558825
 N   -0.079717    0.715283   -0.601044
 C   -0.186710    0.292556   -1.892222
 C   -0.397284    1.398525   -2.907665
 O   -0.138509   -0.887314   -2.217141
 C   -1.493901   -1.671882    1.999908
 C   -0.229723   -2.448271    2.256210
 C   -0.361980   -3.518122    3.277658
 O    0.798203   -4.147330    3.568873
 O   -1.402995   -3.821418    3.815903
 C    0.933951   -2.177686    1.656852
 C    1.065212   -1.131573    0.581975
 N    2.329592   -0.388641    0.680608
 C    3.320985   -0.308299   -0.241856
 N    2.619878    0.353803    1.744474
 N    3.771891    0.917303    1.538514
 C    4.246805    0.536236    0.320059
 C    5.541198    1.049064   -0.226091
 C    5.376446    2.290204   -1.116506
 C    4.864302    3.508758   -0.366100
 O    4.723457    4.557194   -1.306787
 H   -3.749695   -2.431099   -1.588148
 H   -3.968289   -1.396081   -3.004230
 H   -2.472728   -1.296432   -2.069777
 H   -3.953708    0.641832   -1.489496
 H   -5.296131   -0.459907   -1.176845
 H   -3.922840   -1.463648    0.714959
 H   -4.659684    1.492456    0.824520
 H   -5.790924    0.151472    0.996220
 H   -4.592304   -0.597037    3.089537
 H   -5.171243    1.068943    3.239927
 H   -3.457968    0.753981    2.906635
 H   -1.532751   -1.633066   -0.172190
 H   -0.067151    0.489703    1.435580
 H   -0.308613    1.679629   -0.421543
 H    0.068996    2.342238   -2.609353
 H    0.009184    1.075858   -3.867035
 H   -1.472769    1.571221   -3.036601
 H   -1.639611   -0.936035    2.805080
 H   -2.347849   -2.355348    2.060452
 H    0.564935   -4.811221    4.237551
 H    1.833875   -2.724776    1.921717
 H    1.121623   -1.618771   -0.395017
 H    3.283010   -0.837435   -1.185920
 H    6.036087    0.258005   -0.804042
 H    6.197167    1.281285    0.621552
 H    6.343906    2.544360   -1.566160
 H    4.690350    2.071806   -1.942490
 H    3.906735    3.275094    0.126471
 H    5.582264    3.781914    0.426786
 H    4.380211    5.328294   -0.841339
