58 
4ks4_ligand_aiqm1.xyz
 C   -6.028466    0.620172    1.521473
 C   -4.791930   -0.185640    1.137821
 C   -3.635324    0.684307    0.672321
 C   -3.181586    1.739096    1.681888
 C   -2.877109    1.174926    3.069059
 O   -2.554600   -0.221298    0.375660
 C   -1.664458    0.251415   -0.619264
 C   -0.294421   -0.402612   -0.390041
 N    0.212036   -0.260360    0.964287
 C    0.367977    0.936483    1.583004
 C    0.778167    0.860625    3.033011
 O    0.234134    2.002332    0.998395
 C   -2.172991   -0.130575   -2.009658
 C   -1.118496    0.021152   -3.078352
 C   -1.614682   -0.000536   -4.480102
 O   -0.631503    0.192135   -5.386810
 O   -2.765503   -0.169165   -4.797220
 C    0.188371    0.132262   -2.810871
 C    0.707659    0.176620   -1.400046
 N    1.993612   -0.498024   -1.302496
 C    3.214297    0.059663   -1.140960
 N    2.084095   -1.830735   -1.379772
 N    3.349126   -2.143162   -1.268318
 C    4.085018   -1.005095   -1.115930
 C    5.572399   -1.093559   -0.997236
 C    5.999511   -1.748790    0.316230
 C    5.539338   -0.978326    1.546807
 O    6.099486   -1.803782   -2.112793
 H   -6.851386   -0.039137    1.795822
 H   -5.829431    1.272868    2.372423
 H   -6.362461    1.247304    0.692009
 H   -4.450820   -0.793191    1.980246
 H   -5.034411   -0.878157    0.328319
 H   -3.923932    1.204193   -0.253057
 H   -3.960813    2.502813    1.751380
 H   -2.296453    2.238704    1.282747
 H   -2.182857    0.334457    3.009831
 H   -2.427045    1.940696    3.703764
 H   -3.781334    0.821005    3.565906
 H   -1.559916    1.338840   -0.552733
 H   -0.395567   -1.470770   -0.574099
 H    0.268435   -1.089438    1.527894
 H    1.861159    0.961016    3.103940
 H    0.477633   -0.079208    3.494848
 H    0.324069    1.691084    3.565909
 H   -3.048413    0.468941   -2.265089
 H   -2.511690   -1.169873   -1.990961
 H   -1.055629    0.147624   -6.251997
 H    0.924163    0.205846   -3.603622
 H    0.908856    1.215764   -1.144713
 H    3.351402    1.122561   -1.044548
 H    5.998396   -0.088256   -1.053927
 H    5.602525   -2.766331    0.334552
 H    7.087612   -1.824996    0.293117
 H    5.935551   -1.428388    2.457164
 H    5.879523    0.059582    1.508712
 H    4.449823   -0.975106    1.620997
 H    5.509158   -2.549877   -2.264323
