58 
4ks4_ligand_ani-2x.xyz
 C   -5.938959    0.516091    1.617816
 C   -4.694797   -0.259040    1.189491
 C   -3.547000    0.633362    0.724392
 C   -3.018097    1.599174    1.790139
 C   -2.595567    0.909067    3.088632
 O   -2.505052   -0.239486    0.300236
 C   -1.654501    0.271411   -0.714760
 C   -0.259278   -0.318592   -0.509576
 N    0.259271   -0.091300    0.829602
 C    0.426742    1.131134    1.402725
 C    0.947477    1.088121    2.826613
 O    0.179488    2.176047    0.813519
 C   -2.179145   -0.151246   -2.087443
 C   -1.172325    0.073420   -3.183758
 C   -1.748187    0.111990   -4.553396
 O   -0.823808    0.210830   -5.534565
 O   -2.932593    0.063421   -4.796852
 C    0.141426    0.184342   -2.964361
 C    0.722904    0.227768   -1.576961
 N    2.016196   -0.462859   -1.492023
 C    3.210040    0.052328   -1.102605
 N    2.127199   -1.761690   -1.755291
 N    3.363010   -2.105645   -1.551531
 C    4.069290   -1.017755   -1.142754
 C    5.516065   -1.159894   -0.790823
 C    5.681106   -1.783656    0.604050
 C    5.125736   -0.912911    1.725934
 O    6.197997   -1.925746   -1.759516
 H   -6.759350   -0.164896    1.865652
 H   -5.747052    1.134907    2.501953
 H   -6.284403    1.178875    0.815431
 H   -4.337060   -0.895284    2.007504
 H   -4.938936   -0.934158    0.360322
 H   -3.901002    1.231758   -0.134837
 H   -3.785866    2.356418    1.995149
 H   -2.163823    2.138238    1.362117
 H   -1.984359    0.024334    2.881874
 H   -2.011224    1.586861    3.719982
 H   -3.464172    0.578256    3.667883
 H   -1.586780    1.366478   -0.643685
 H   -0.335110   -1.403798   -0.632892
 H    0.452957   -0.908130    1.384725
 H    1.944240    0.633539    2.866685
 H    0.293302    0.491727    3.472960
 H    1.003345    2.107634    3.208273
 H   -3.108447    0.372619   -2.338189
 H   -2.444232   -1.216891   -2.037422
 H   -1.332714    0.228112   -6.360951
 H    0.837123    0.268322   -3.794051
 H    0.955822    1.264341   -1.312821
 H    3.337878    1.091573   -0.829828
 H    5.985953   -0.166298   -0.786194
 H    5.180907   -2.761299    0.600387
 H    6.750442   -1.974480    0.748618
 H    5.304204   -1.379771    2.699929
 H    5.600580    0.075697    1.735679
 H    4.043234   -0.766650    1.624619
 H    5.580206   -2.616620   -2.045209
