58 
4ks4_ligand_dft.xyz
 C   -6.156105   -1.887317   -0.666000
 C   -4.832566   -1.332145   -1.188615
 C   -3.800310   -1.082769   -0.092488
 C   -3.440747   -2.313398    0.748741
 C   -2.958582   -3.502944   -0.078950
 O   -2.637174   -0.572184   -0.743848
 C   -1.872875    0.327991    0.021472
 C   -0.394062    0.121564   -0.327469
 N    0.027351   -1.265492   -0.249398
 C    0.131970   -1.981637    0.901557
 C    0.522346   -3.435866    0.737040
 O   -0.028408   -1.483196    2.011292
 C   -2.285917    1.769053   -0.287975
 C   -1.266392    2.780932    0.166279
 C   -1.724220    4.194959    0.169871
 O   -0.787343    5.072658    0.576133
 O   -2.836644    4.541317   -0.159214
 C   -0.016918    2.460520    0.514614
 C    0.460506    1.038592    0.566817
 N    1.863797    0.921448    0.214444
 C    2.800695    0.153451    0.817900
 N    2.336773    1.462792   -0.914080
 N    3.568385    1.066154   -1.043017
 C    3.896639    0.256571   -0.000280
 C    5.249497   -0.396284    0.039889
 C    5.268605   -1.681953   -0.803590
 C    4.267255   -2.737455   -0.337380
 O    6.247238    0.503613   -0.392983
 H   -6.894598   -1.950404   -1.470702
 H   -6.036927   -2.891777   -0.245762
 H   -6.572774   -1.244825    0.118504
 H   -4.402878   -2.012190   -1.933518
 H   -5.000938   -0.378932   -1.701791
 H   -4.200034   -0.309852    0.583513
 H   -4.312363   -2.599991    1.349898
 H   -2.662463   -2.023390    1.464837
 H   -2.159115   -3.193012   -0.759635
 H   -2.571772   -4.297216    0.567141
 H   -3.764474   -3.932311   -0.683735
 H   -1.995328    0.120799    1.093490
 H   -0.235150    0.430500   -1.366021
 H    0.068033   -1.766408   -1.121958
 H    1.573632   -3.550782    1.019482
 H    0.391006   -3.814042   -0.280207
 H   -0.077262   -4.035519    1.424487
 H   -3.257988    1.991676    0.163855
 H   -2.431289    1.857595   -1.371813
 H   -1.200065    5.948729    0.523992
 H    0.691081    3.227035    0.811557
 H    0.383700    0.672620    1.595043
 H    2.598704   -0.383790    1.732021
 H    5.490792   -0.653919    1.078338
 H    5.068372   -1.407973   -1.846963
 H    6.288394   -2.079881   -0.764588
 H    4.383756   -3.666307   -0.903938
 H    4.409583   -2.975421    0.724457
 H    3.236445   -2.389005   -0.468142
 H    5.863512    1.004815   -1.127123
