58 
4ks5_ligand_ani-2x.xyz
 C    6.523020   -0.194155    0.006127
 C    5.463223    0.191871   -1.038712
 C    5.427964   -0.830927   -2.169741
 O    5.817521    1.434410   -1.623042
 C    4.114117    0.305124   -0.388126
 C    3.099731   -0.599043   -0.206982
 N    3.750905    1.467803    0.214685
 N    2.579281    1.321816    0.754204
 N    2.172025    0.080951    0.511706
 C    0.858216   -0.397343    0.957634
 C   -0.279411    0.383271    0.248890
 N   -0.216785    0.185966   -1.190343
 C   -0.419281   -1.001751   -1.818280
 O   -0.684916   -2.036775   -1.218283
 C   -0.294381   -0.973237   -3.327911
 C    0.719337   -0.382291    2.456619
 C   -0.434774   -0.085772    3.062132
 C   -0.590141   -0.149281    4.538553
 O   -1.625929    0.068247    5.125400
 O    0.543767   -0.480026    5.195690
 C   -1.655100    0.390182    2.321800
 C   -1.634629    0.001560    0.842954
 O   -2.648138    0.709989    0.142222
 C   -3.906377    0.045417    0.061901
 C   -3.926834   -0.940310   -1.112037
 C   -3.842642   -0.279303   -2.487870
 C   -4.991480    1.112384   -0.039274
 C   -5.094823    1.984033    1.208296
 H    6.533857    0.539273    0.820035
 H    6.311478   -1.182341    0.427374
 H    7.510232   -0.205894   -0.465956
 H    4.700843   -0.514254   -2.922787
 H    6.414462   -0.889539   -2.639087
 H    5.152929   -1.823505   -1.798301
 H    5.449680    2.125315   -1.049525
 H    2.943782   -1.623186   -0.516769
 H    0.819063   -1.432751    0.603240
 H   -0.125697    1.453130    0.421681
 H   -0.005142    0.992012   -1.754448
 H    0.515203   -1.644149   -3.629057
 H   -0.103963    0.025793   -3.729698
 H   -1.219249   -1.368528   -3.758537
 H    1.598399   -0.647646    3.036527
 H    0.299238   -0.486416    6.135042
 H   -2.553970    0.011201    2.820871
 H   -1.715889    1.486804    2.385469
 H   -1.776453   -1.081233    0.722921
 H   -4.071794   -0.532027    0.989237
 H   -3.093425   -1.643115   -0.987516
 H   -4.850981   -1.530283   -1.041860
 H   -3.759527   -1.035191   -3.275606
 H   -4.736212    0.316067   -2.703360
 H   -2.973659    0.385226   -2.560959
 H   -5.949597    0.608659   -0.230797
 H   -4.781150    1.743006   -0.910655
 H   -4.153264    2.513624    1.383179
 H   -5.311271    1.379463    2.097487
 H   -5.891387    2.727474    1.103442
