23 
4kw6_ligand_xtb.xyz
 O   26.065824  -58.339892  104.140687
 N   25.057646  -57.817168  104.677757
 C   23.823904  -58.008630  104.172194
 C   23.767302  -58.869264  102.956828
 C   22.714024  -57.409496  104.796824
 C   21.331811  -57.605572  104.256534
 C   25.199370  -57.029769  105.806693
 C   26.464238  -56.806239  106.363042
 C   26.581516  -56.023169  107.481064
 C   25.443826  -55.448901  108.065356
 C   24.200103  -55.657942  107.533438
 C   24.043219  -56.457787  106.384241
 N   22.816941  -56.658971  105.866683
 H   24.393773  -58.432173  102.177959
 H   24.199312  -59.844245  103.186881
 H   22.756470  -58.993367  102.588235
 H   21.260139  -57.230222  103.237467
 H   21.064278  -58.660510  104.257135
 H   20.634855  -57.060999  104.886395
 H   27.316633  -57.265061  105.885389
 H   27.552730  -55.845470  107.916613
 H   25.556690  -54.834712  108.946340
 H   23.313494  -55.225141  107.968246
