23 
4kw6_ligand_aiqm1.xyz
 O   26.068625  -58.335025  104.147780
 N   25.046627  -57.811398  104.683568
 C   23.822254  -58.008654  104.171706
 C   23.769945  -58.871047  102.954766
 C   22.697549  -57.402922  104.802647
 C   21.319546  -57.613860  104.242691
 C   25.194555  -57.019717  105.819801
 C   26.478368  -56.808533  106.362645
 C   26.601030  -56.024177  107.483542
 C   25.455372  -55.441239  108.078381
 C   24.205976  -55.649536  107.546327
 C   24.047783  -56.452645  106.392229
 N   22.802363  -56.650720  105.875245
 H   24.392410  -58.438584  102.170660
 H   24.198128  -59.848802  103.178277
 H   22.752574  -58.988573  102.594038
 H   21.253128  -57.249404  103.216275
 H   21.058394  -58.673295  104.231407
 H   20.604904  -57.075833  104.860199
 H   27.326806  -57.271334  105.878679
 H   27.576888  -55.848950  107.916664
 H   25.567584  -54.825505  108.961347
 H   23.317289  -55.214947  107.983128
