29 
4kwf_ligand_xtb.xyz
 O    0.580788  -29.637061   52.595459
 C    1.010160  -29.156445   51.576138
 C    1.295007  -29.866747   50.226922
 O    1.130285  -31.036514   49.996664
 C    1.787095  -28.794744   49.359265
 N    1.348085  -27.841519   51.398037
 C    1.792578  -27.602134   50.104839
 C    2.203254  -26.413570   49.535822
 C    2.612359  -26.441214   48.206712
 C    2.612783  -27.613995   47.466217
 C    2.196715  -28.808025   48.037461
 C    1.195923  -26.829835   52.418468
 C    0.192742  -25.777454   52.019581
 C   -1.031593  -26.153886   51.481583
 C   -1.953724  -25.195153   51.103746
 C   -1.663760  -23.850558   51.264696
 C   -0.448690  -23.468868   51.806500
 C    0.476925  -24.428274   52.178660
 H    2.201505  -25.490606   50.092902
 H    2.937010  -25.521859   47.742525
 H    2.937707  -27.595381   46.437532
 H    2.187056  -29.730160   47.477602
 H    2.168709  -26.371816   52.628409
 H    0.855199  -27.357832   53.316494
 H   -1.262665  -27.202878   51.363042
 H   -2.901973  -25.498282   50.685685
 H   -2.384199  -23.102191   50.970439
 H   -0.218404  -22.421846   51.937042
 H    1.425524  -24.126350   52.600757
