18 
4kww_ligand_aiqm1.xyz
 O  -83.422627  -20.478295   -0.653424
 O  -83.587361  -20.739393   -2.847048
 C  -82.198588  -23.227294    0.072127
 O  -82.062089  -23.738492    1.315406
 O  -81.334232  -22.546969   -0.406274
 C  -83.634449  -21.229834   -1.755141
 C  -84.011977  -24.848049   -0.505929
 C  -83.474344  -23.565540   -0.640189
 C  -84.067588  -22.661314   -1.538425
 C  -85.159437  -23.074422   -2.305456
 C  -85.688760  -24.351218   -2.162960
 C  -85.118016  -25.238586   -1.255372
 H  -83.439952  -21.022789    0.140269
 H  -82.865908  -24.205458    1.563930
 H  -83.537453  -25.571850    0.148078
 H  -85.575828  -22.377945   -3.020521
 H  -86.533610  -24.655185   -2.766086
 H  -85.513082  -26.238865   -1.142184
