18 
4kww_ligand_dft.xyz
 O   -2.103513    1.373126    0.401381
 O   -0.745004    2.773745   -0.628117
 C   -1.060680   -1.499632    0.008541
 O   -1.032736   -2.612456   -0.734566
 O   -2.060331   -1.240154    0.642615
 C   -0.925925    1.697073   -0.112173
 C    1.399431   -1.411704    0.120847
 C    0.201817   -0.688878    0.033854
 C    0.240390    0.720010    0.008026
 C    1.489877    1.345341    0.033544
 C    2.669945    0.620902    0.134319
 C    2.626688   -0.766994    0.187026
 H   -2.122380    0.455125    0.750644
 H   -0.233316   -2.630971   -1.278991
 H    1.368805   -2.496530    0.181496
 H    1.509981    2.426859   -0.035179
 H    3.621177    1.142067    0.170504
 H    3.539148   -1.347342    0.277109
