72 
4kx8_ligand_aiqm1.xyz
 N   -1.196298    0.632760    1.643222
 C   -2.404699   -0.196842    1.271314
 C   -3.156345   -0.627636    2.525054
 C   -3.841772    0.501378    3.309576
 C   -4.876582    1.249568    2.471097
 C   -4.501290   -0.084350    4.554694
 C   -1.941760   -1.367742    0.399884
 O   -0.937573   -2.149161    1.032719
 C   -1.340031   -0.855592   -0.920686
 O   -1.467311    0.320999   -1.235130
 N   -0.732187   -1.799959   -1.646467
 C    0.124809   -1.483936   -2.805531
 C    1.378001   -0.820503   -2.208890
 O    2.114359   -1.482339   -1.489944
 C   -0.585528   -0.756418   -3.947633
 C   -1.901434   -1.449434   -4.295991
 C    0.325492   -0.721785   -5.175623
 N    1.607128    0.496583   -2.446210
 C    2.634214    1.137136   -1.643700
 C    2.265515    0.939787   -0.169889
 O    1.103474    1.037469    0.232345
 C    2.822155    2.614210   -2.012076
 C    3.404344    2.735853   -3.418613
 C    1.535664    3.426814   -1.882726
 N    3.245376    0.610688    0.684380
 C    2.897822    0.187921    2.016642
 C    4.145910    0.190568    2.869537
 O    3.830237    0.066566    4.165215
 C    2.266977   -1.229403    1.997899
 C    1.402771   -1.450333    3.202589
 O    0.392643   -0.805918    3.432171
 O    1.820712   -2.419866    4.005956
 O    5.260436    0.262535    2.430846
 H   -0.652297    0.875512    0.801030
 H   -1.492918    1.500474    2.087214
 H   -0.582093    0.111251    2.302226
 H   -3.039579    0.429025    0.653930
 H   -3.931719   -1.332793    2.216576
 H   -2.480075   -1.170867    3.192822
 H   -3.079121    1.215200    3.643625
 H   -5.656704    0.566728    2.130280
 H   -4.449587    1.741735    1.593679
 H   -5.355493    2.017721    3.073304
 H   -5.290385   -0.784290    4.272720
 H   -3.778932   -0.615198    5.174500
 H   -4.950342    0.702799    5.155981
 H   -2.815122   -1.974734    0.160638
 H   -1.343777   -2.682253    1.718173
 H   -0.525391   -2.660805   -1.162806
 H    0.472378   -2.448504   -3.173418
 H   -0.815559    0.263048   -3.640397
 H   -2.347584   -0.977016   -5.169028
 H   -2.619274   -1.389464   -3.474959
 H   -1.732153   -2.502595   -4.533244
 H    0.533521   -1.738413   -5.515116
 H   -0.167894   -0.194470   -5.990203
 H    1.277638   -0.226637   -4.977145
 H    0.817334    1.064479   -2.712175
 H    3.568848    0.606361   -1.825732
 H    3.557145    3.008148   -1.303792
 H    3.611292    3.778683   -3.649056
 H    4.332854    2.174250   -3.520519
 H    2.699653    2.361380   -4.164570
 H    0.840878    3.206119   -2.695298
 H    1.026837    3.230008   -0.938100
 H    1.765790    4.488844   -1.940369
 H    4.185728    0.437536    0.363513
 H    2.171049    0.897536    2.419818
 H    4.657696    0.040714    4.661355
 H    1.627942   -1.296763    1.118736
 H    3.040521   -1.993842    1.935213
 H    1.223264   -2.454925    4.764764
