28 
4kz7_ligand_xtb.xyz
 C    0.599604    0.774112    1.558666
 C    0.067208    0.588408    0.145177
 C   -0.063852    1.956703   -0.520728
 C   -1.208178   -0.275895    0.015599
 C   -2.506889    0.214760    0.611851
 C   -0.740344   -1.669649    0.503484
 C    0.716495   -1.749727    0.012418
 C    0.872923   -0.413403   -0.735239
 C    2.272026    0.012645   -1.102793
 O    2.588540    0.587658   -2.103091
 O    3.144783   -0.290274   -0.130477
 O    0.060240   -0.522719   -1.906405
 C   -1.225116   -0.461598   -1.500105
 O   -2.163767   -0.583839   -2.227580
 H   -0.056527    1.451974    2.100074
 H    1.592360    1.217089    1.525175
 H    0.663238   -0.154842    2.113534
 H   -0.771454    2.571526    0.030773
 H   -0.407158    1.873041   -1.548997
 H    0.898838    2.464070   -0.527193
 H   -2.764394    1.193072    0.214914
 H   -3.307126   -0.473897    0.351889
 H   -2.431431    0.277162    1.695230
 H   -0.815712   -1.738455    1.588066
 H   -1.364095   -2.453448    0.073801
 H    0.877212   -2.575175   -0.680204
 H    1.438431   -1.828434    0.821665
 H    4.034246    0.009537   -0.379904
