28 
4kz7_ligand_ani-2x.xyz
 C    0.487820    0.868945    1.634299
 C    0.042688    0.639606    0.192976
 C   -0.126532    1.984505   -0.518569
 C   -1.192214   -0.293659    0.018990
 C   -2.543115    0.197480    0.482243
 C   -0.712272   -1.646355    0.600608
 C    0.780036   -1.697419    0.173722
 C    0.941080   -0.361635   -0.574991
 C    2.348741    0.062833   -0.920955
 O    2.773977    1.192778   -0.876410
 O    3.123416   -0.975289   -1.285260
 O    0.215198   -0.535239   -1.829534
 C   -1.106238   -0.529110   -1.490779
 O   -1.993939   -0.685602   -2.279565
 H   -0.233559    1.503221    2.162157
 H    1.455604    1.381854    1.641384
 H    0.597815   -0.056666    2.204780
 H   -0.887765    2.581061   -0.002441
 H   -0.427564    1.875918   -1.562953
 H    0.816891    2.532261   -0.491806
 H   -2.824312    1.127341   -0.024972
 H   -3.315723   -0.545245    0.258889
 H   -2.549780    0.382233    1.563570
 H   -0.827075   -1.653002    1.690062
 H   -1.300954   -2.479344    0.203344
 H    1.007742   -2.526519   -0.498918
 H    1.458437   -1.747907    1.031379
 H    3.991697   -0.596646   -1.501650
