28 
4kzq_ligand_dft.xyz
 C    3.932893   -2.006004   -0.161974
 C    4.673412   -0.820645   -0.062185
 C    4.017778    0.393147    0.032401
 C    2.619069    0.446907    0.028604
 C    1.902853   -0.744665   -0.070239
 C    2.548700   -1.977431   -0.166993
 C    1.895453    1.734406    0.136374
 C    0.446043    1.592242    0.137218
 C   -0.160029    0.389233    0.016855
 O    0.538368   -0.767883   -0.086221
 C   -1.613929    0.155928   -0.003567
 C   -2.503633    1.173688   -0.372349
 C   -3.871248    0.962520   -0.371857
 C   -4.380975   -0.284829   -0.004237
 C   -3.507707   -1.312666    0.354047
 C   -2.137739   -1.090722    0.349895
 O    2.471761    2.809865    0.227623
 O   -5.727347   -0.436716   -0.021957
 H    4.445734   -2.960030   -0.237139
 H    5.757921   -0.858302   -0.059567
 H    4.555914    1.332233    0.112021
 H    1.956863   -2.882993   -0.245653
 H   -0.144803    2.491150    0.259918
 H   -2.121957    2.139899   -0.686397
 H   -4.560809    1.746891   -0.663956
 H   -3.897515   -2.287237    0.639069
 H   -1.465905   -1.893893    0.631002
 H   -5.953344   -1.336492    0.243192
