28 
4kzq_ligand_aiqm1.xyz
 C   -4.877141   34.684175  -15.363364
 C   -5.530438   35.407541  -16.369783
 C   -6.297011   36.508494  -16.033991
 C   -6.426961   36.907790  -14.694261
 C   -5.765924   36.169673  -13.714061
 C   -4.988471   35.057585  -14.033839
 C   -7.237777   38.080832  -14.311139
 C   -7.262700   38.333904  -12.878846
 C   -6.595779   37.551661  -11.998224
 O   -5.838184   36.493572  -12.386760
 C   -6.578331   37.740776  -10.540416
 C   -7.577745   38.482519   -9.894728
 C   -7.545222   38.674592   -8.521827
 C   -6.506514   38.125677   -7.772307
 C   -5.509698   37.379517   -8.397967
 C   -5.552640   37.186884   -9.771815
 O   -7.830815   38.771136  -15.131397
 O   -6.520514   38.349283   -6.429781
 H   -4.276437   33.821459  -15.619144
 H   -5.434457   35.104793  -17.402879
 H   -6.816738   37.094371  -16.778694
 H   -4.492908   34.512640  -13.242903
 H   -7.828496   39.184965  -12.532738
 H   -8.399291   38.900496  -10.461109
 H   -8.315599   39.242243   -8.018918
 H   -4.704234   36.947881   -7.814613
 H   -4.782052   36.604079  -10.257887
 H   -5.761822   37.918464   -6.030612
