35 
4l0b_ligand_xtb.xyz
 C    5.402149   11.356107   -5.604491
 N    6.117044   10.452078   -6.471050
 C    6.720302    9.276870   -5.892823
 C    6.219661   10.703075   -7.808152
 C    5.780361   11.916941   -8.363465
 C    5.888226   12.163049   -9.711130
 C    6.766443    9.756462   -8.692340
 C    6.876826   10.013332  -10.037942
 C    6.446111   11.224776  -10.584536
 C    6.556700   11.519529  -12.008129
 O    5.774763   12.554485  -12.398031
 C    5.786073   12.945017  -13.695380
 C    4.964544   14.017860  -14.045331
 C    4.933641   14.456339  -15.350908
 C    5.715064   13.838463  -16.323251
 C    6.525902   12.780560  -15.980205
 C    6.573395   12.318114  -14.664188
 C    7.440913   11.186919  -14.282053
 O    8.155797   10.598476  -15.080819
 C    7.361624   10.855314  -12.876023
 H    5.952952   12.290963   -5.452088
 H    4.419537   11.593090   -6.019156
 H    5.251951   10.886013   -4.635446
 H    6.173026    8.366524   -6.161819
 H    7.756220    9.172414   -6.223367
 H    6.722286    9.366917   -4.809028
 H    5.362031   12.684369   -7.733349
 H    5.548912   13.109518  -10.103408
 H    7.094626    8.797950   -8.325819
 H    7.283147    9.247494  -10.679609
 H    4.364835   14.484633  -13.279375
 H    4.297075   15.286256  -15.619356
 H    5.682300   14.190960  -17.342934
 H    7.145034   12.278404  -16.708255
 H    7.991229   10.053128  -12.530045
