36 
4l0i_ligand_aiqm1.xyz
 C   -8.481124   39.152668   -3.901596
 C   -7.365844   38.225565   -4.317292
 O   -7.424838   38.128516   -5.753981
 C   -6.493442   37.333703   -6.300180
 O   -5.664139   36.740132   -5.654421
 C   -6.605752   37.273147   -7.784128
 C   -5.690023   36.479345   -8.478158
 C   -5.754166   36.391969   -9.860029
 C   -7.584433   37.983077   -8.481459
 C   -7.652677   37.892977   -9.865520
 C   -6.740115   37.090851  -10.564682
 C   -6.819969   36.967162  -12.032838
 O   -5.642686   36.570366  -12.578061
 C   -5.547300   36.424637  -13.935537
 C   -4.300669   36.039194  -14.426043
 C   -4.146945   35.872905  -15.792801
 C   -5.220227   36.086132  -16.667998
 C   -6.449805   36.467943  -16.163564
 C   -6.632551   36.644100  -14.782435
 C   -7.935424   37.050240  -14.220925
 O   -8.924634   37.247336  -14.915276
 C   -7.929647   37.194186  -12.770804
 H   -8.348235   40.136688   -4.351241
 H   -9.446443   38.753343   -4.212701
 H   -8.482368   39.262208   -2.817546
 H   -7.479483   37.227052   -3.895947
 H   -6.384694   38.605877   -4.034028
 H   -4.937426   35.942411   -7.917734
 H   -5.045570   35.782256  -10.405385
 H   -8.285207   38.603476   -7.939843
 H   -8.403497   38.460311  -10.399791
 H   -3.485821   35.879768  -13.734411
 H   -3.182314   35.574612  -16.181155
 H   -5.085578   35.952268  -17.731923
 H   -7.303368   36.642136  -16.803132
 H   -8.853984   37.478344  -12.291237
