28 
4l0s_ligand_ani-2x.xyz
 C    7.683864   38.214191   12.924430
 C    7.695035   37.951052   14.356070
 O    8.435930   38.523400   15.141418
 C    6.714657   36.923174   14.775781
 C    6.565786   36.568156   16.120670
 C    5.647506   35.604513   16.497791
 C    4.861912   34.977517   15.523248
 C    4.995244   35.312843   14.185891
 C    5.924201   36.290045   13.824913
 O    6.018613   36.575640   12.490942
 C    6.859546   37.563980   12.073508
 C    6.783430   37.782109   10.610037
 C    6.244408   36.792987    9.774497
 C    6.195097   36.982790    8.404801
 C    6.676493   38.173527    7.847813
 C    6.623318   38.371749    6.421518
 N    6.579499   38.529005    5.274556
 C    7.204862   39.169896    8.674449
 C    7.258270   38.970145   10.044912
 H    8.391419   38.946950   12.560990
 H    7.194700   37.074606   16.847987
 H    5.537786   35.335586   17.544132
 H    4.140580   34.219327   15.815918
 H    4.401066   34.840463   13.410472
 H    5.868562   35.875512   10.214385
 H    5.782157   36.213916    7.757982
 H    7.574059   40.094054    8.240469
 H    7.652698   39.761668   10.675318
