28 
4l0s_ligand_xtb.xyz
 C    7.681724   38.194950   12.907964
 C    7.703033   37.933150   14.339227
 O    8.459980   38.492556   15.113945
 C    6.716960   36.920454   14.757977
 C    6.598137   36.540864   16.096732
 C    5.675260   35.593427   16.476593
 C    4.850428   35.005217   15.521267
 C    4.949262   35.363015   14.194502
 C    5.884876   36.322903   13.807426
 O    5.940045   36.638306   12.487799
 C    6.828016   37.564485   12.069840
 C    6.782236   37.787639   10.618460
 C    6.295132   36.780824    9.782187
 C    6.250009   36.961135    8.416103
 C    6.689110   38.164105    7.861814
 C    6.644094   38.355302    6.461340
 N    6.606757   38.508457    5.326114
 C    7.167264   39.180453    8.690886
 C    7.211310   38.990973   10.055860
 H    8.396761   38.907273   12.531668
 H    7.252710   37.016778   16.811057
 H    5.587776   35.304552   17.512586
 H    4.126308   34.262364   15.819724
 H    4.317488   34.918398   13.441576
 H    5.959923   35.850622   10.214082
 H    5.878017   36.179360    7.770736
 H    7.496066   40.112591    8.256199
 H    7.562019   39.788646   10.691236
