29 
4l0t_ligand_ani-2x.xyz
 C    7.716364   38.087893   12.967903
 C    7.760898   37.825023   14.398828
 O    8.551321   38.363369   15.159564
 C    6.748764   36.842535   14.850764
 C    6.627073   36.494177   16.200078
 C    5.678527   35.573107   16.607467
 C    4.834452   34.982804   15.659249
 C    4.939946   35.312243   14.317971
 C    5.900335   36.246331   13.926339
 O    5.964496   36.527858   12.589754
 C    6.836747   37.476151   12.144013
 C    6.726380   37.698871   10.684792
 C    7.247757   38.863016   10.105241
 C    7.164842   39.069789    8.737956
 C    6.558295   38.096006    7.955190
 N    6.471478   38.304237    6.506516
 O    6.941069   39.334304    6.053171
 O    5.934840   37.435302    5.840226
 C    6.027074   36.931867    8.497727
 C    6.109045   36.739485    9.865388
 H    8.444558   38.787450   12.580657
 H    7.301297   36.971314   16.906325
 H    5.590272   35.309055   17.657074
 H    4.089165   34.258066   15.975702
 H    4.300407   34.867754   13.562408
 H    7.702578   39.633467   10.720388
 H    7.562331   39.964806    8.274688
 H    5.559249   36.201119    7.847910
 H    5.697039   35.841601   10.312313
