29 
4l0t_ligand_dft.xyz
 C   -1.141990    1.612896    0.178664
 C   -2.599786    1.712338    0.191642
 O   -3.198938    2.769302    0.320241
 C   -3.285023    0.409736    0.043474
 C   -4.682114    0.316238    0.048120
 C   -5.302270   -0.911805   -0.087720
 C   -4.528632   -2.071471   -0.231044
 C   -3.145876   -2.004140   -0.238097
 C   -2.536242   -0.757735   -0.098649
 O   -1.169607   -0.742118   -0.115555
 C   -0.510089    0.431015    0.020395
 C    0.955883    0.242340   -0.000970
 C    1.801977    1.286923   -0.390156
 C    3.178196    1.117411   -0.389331
 C    3.696931   -0.110764   -0.002402
 N    5.154645   -0.297696   -0.001727
 O    5.845619    0.649975   -0.340247
 O    5.583870   -1.388882    0.337837
 C    2.883998   -1.169745    0.376558
 C    1.508827   -0.987879    0.372288
 H   -0.575943    2.524419    0.324008
 H   -5.247534    1.235551    0.161190
 H   -6.385085   -0.980667   -0.084171
 H   -5.014568   -3.036217   -0.338771
 H   -2.529221   -2.889292   -0.350002
 H    1.385105    2.232895   -0.718212
 H    3.847136    1.913230   -0.691784
 H    3.329972   -2.111945    0.669402
 H    0.857335   -1.802463    0.665580
