29 
4l0t_ligand_aiqm1.xyz
 C    7.727412   38.085324   12.960531
 C    7.772956   37.811783   14.394061
 O    8.575522   38.337648   15.153175
 C    6.757952   36.841634   14.845754
 C    6.646908   36.469397   16.195322
 C    5.687670   35.557896   16.596967
 C    4.819025   35.000919   15.649122
 C    4.907774   35.350655   14.311247
 C    5.880595   36.270722   13.925355
 O    5.925945   36.576501   12.590193
 C    6.830290   37.485079   12.148398
 C    6.726183   37.708904   10.691877
 C    7.218887   38.888076   10.115044
 C    7.137465   39.079884    8.741720
 C    6.563314   38.085116    7.965608
 N    6.478712   38.285682    6.509965
 O    6.924394   39.328453    6.059939
 O    5.968333   37.395554    5.849796
 C    6.060315   36.911024    8.507651
 C    6.141793   36.729517    9.880911
 H    8.451022   38.779875   12.560567
 H    7.336318   36.922215   16.893493
 H    5.606757   35.275384   17.636752
 H    4.066139   34.288070   15.957146
 H    4.247367   34.932669   13.565114
 H    7.648695   39.663209   10.733846
 H    7.505643   39.979172    8.270690
 H    5.618178   36.169888    7.858168
 H    5.755035   35.828750   10.337191
