31 
4l10_ligand_xtb.xyz
 C   -6.288065  -39.369243    5.871106
 O   -5.925584  -38.167671    6.510050
 C   -6.096804  -38.061927    7.850206
 C   -6.601949  -39.064195    8.675227
 C   -6.737681  -38.844050   10.032104
 C   -5.723783  -36.841200    8.420175
 C   -5.857408  -36.630849    9.771821
 C   -6.375995  -37.627174   10.604891
 C   -6.518683  -37.377757   12.041300
 O   -5.725474  -36.377353   12.484179
 C   -5.764160  -36.030348   13.794605
 C   -4.927702  -34.990713   14.203803
 C   -4.924678  -34.597785   15.524125
 C   -5.748560  -35.228941   16.452312
 C   -6.573869  -36.254369   16.050938
 C   -6.594052  -36.670727   14.718376
 C   -7.476084  -37.766651   14.274918
 O   -8.226161  -38.366206   15.029190
 C   -7.363563  -38.052537   12.856996
 H   -5.700367  -40.214523    6.242555
 H   -7.354223  -39.583451    5.994240
 H   -6.071281  -39.217333    4.815073
 H   -6.888085  -40.022417    8.271514
 H   -7.112186  -39.642472   10.652993
 H   -5.331281  -36.073581    7.772388
 H   -5.569611  -35.682369   10.197650
 H   -4.295270  -34.513577   13.471505
 H   -4.276937  -33.793484   15.839108
 H   -5.736937  -34.911893   17.483884
 H   -7.225256  -36.765388   16.743718
 H   -8.002111  -38.825417   12.463649
