31 
4l10_ligand_aiqm1.xyz
 C   -6.295291  -39.376807    5.893145
 O   -5.910634  -38.154517    6.500269
 C   -6.085536  -38.050096    7.840092
 C   -6.609057  -39.057669    8.651770
 C   -6.747499  -38.834838   10.021024
 C   -5.697734  -36.830882    8.410726
 C   -5.835163  -36.624667    9.770202
 C   -6.371142  -37.620782   10.596747
 C   -6.537584  -37.381466   12.036495
 O   -5.758701  -36.360985   12.479643
 C   -5.781797  -36.022992   13.804630
 C   -4.939623  -34.980020   14.187784
 C   -4.922794  -34.593209   15.517921
 C   -5.735021  -35.234084   16.462745
 C   -6.564691  -36.266284   16.064549
 C   -6.600399  -36.678321   14.722839
 C   -7.479801  -37.775702   14.272571
 O   -8.226577  -38.379220   15.034281
 C   -7.374020  -38.066432   12.852033
 H   -5.718297  -40.213797    6.292202
 H   -7.361011  -39.568805    6.034626
 H   -6.084089  -39.261794    4.834747
 H   -6.906696  -40.011107    8.241310
 H   -7.138695  -39.632452   10.638992
 H   -5.289541  -36.064168    7.766498
 H   -5.529873  -35.682641   10.206564
 H   -4.320850  -34.498806   13.443740
 H   -4.271065  -33.785199   15.822865
 H   -5.711721  -34.921491   17.497173
 H   -7.207544  -36.786530   16.760330
 H   -8.001352  -38.849839   12.456090
