42 
4l23_ligand_ani-2x.xyz
 N   34.984085   48.848905   43.798231
 C   35.982447   49.254401   43.006554
 C   36.159873   48.856428   41.677724
 C   35.253526   47.974835   41.098643
 C   34.208913   47.540333   41.901095
 C   34.149917   48.018526   43.216734
 O   33.072893   47.506054   43.881941
 C   32.421154   46.691177   42.995532
 C   33.065108   46.665080   41.772274
 N   32.641539   45.937918   40.731347
 C   31.262189   45.897237   43.171671
 N   30.567922   45.784459   44.338197
 C   29.450997   44.851897   44.404196
 C   29.314791   44.314798   45.821519
 O   29.211438   45.360324   46.764278
 C   30.355714   46.187161   46.722235
 C   30.505581   46.835950   45.354791
 N   30.859177   45.170884   42.130063
 C   31.542065   45.236735   40.978737
 C   31.004843   44.427158   39.856577
 C   31.717467   44.322138   38.663091
 C   31.200208   43.559851   37.621674
 C   29.982449   42.906497   37.754123
 C   29.271975   43.018977   38.948425
 O   28.081137   42.364346   39.035540
 C   29.780542   43.776618   39.998770
 H   36.692798   49.945219   43.460260
 H   37.002266   49.237781   41.108820
 H   35.370072   47.650981   40.067819
 H   29.627900   44.033741   43.701560
 H   28.517722   45.354487   44.106595
 H   30.176665   43.671929   46.061014
 H   28.403937   43.715201   45.913169
 H   31.257639   45.601505   46.958356
 H   30.223545   46.950688   47.495165
 H   29.639763   47.489879   45.169003
 H   31.409493   47.442219   45.324205
 H   32.666432   44.836752   38.559301
 H   31.754789   43.474869   36.690777
 H   29.566099   42.308805   36.949437
 H   27.700198   42.525416   39.908288
 H   29.224133   43.868940   40.929268
