42 
4l23_ligand_aiqm1.xyz
 N   35.028037   48.791129   43.830319
 C   35.992179   49.270296   43.029447
 C   36.131690   48.941553   41.677213
 C   35.234511   48.063444   41.079678
 C   34.222192   47.550837   41.890459
 C   34.202874   47.965917   43.225790
 O   33.173927   47.402516   43.921723
 C   32.508399   46.610363   43.018287
 C   33.093914   46.650277   41.761656
 N   32.645322   45.959576   40.705264
 C   31.366100   45.809692   43.204896
 N   30.733271   45.623552   44.411875
 C   29.494119   44.850113   44.388103
 C   29.126870   44.430326   45.800631
 O   29.020745   45.548116   46.660026
 C   30.264296   46.219411   46.725195
 C   30.681215   46.738006   45.360694
 N   30.924757   45.124865   42.141836
 C   31.567102   45.219716   40.962707
 C   31.004882   44.424088   39.842061
 C   31.631698   44.416115   38.593863
 C   31.089705   43.664490   37.558437
 C   29.929846   42.919553   37.744559
 C   29.308317   42.932606   38.991347
 O   28.168843   42.186353   39.129489
 C   29.838567   43.677541   40.036612
 H   36.689452   49.953504   43.494861
 H   36.939577   49.374647   41.105269
 H   35.310556   47.785850   40.037541
 H   29.654732   43.963217   43.777725
 H   28.686308   45.436870   43.937039
 H   29.880909   43.734752   46.190149
 H   28.155148   43.938585   45.803056
 H   31.030258   45.541469   47.120412
 H   30.135397   47.052018   47.414704
 H   29.961870   47.491849   45.020226
 H   31.660622   47.199554   45.438321
 H   32.530483   44.995391   38.450393
 H   31.572864   43.655283   36.589854
 H   29.498774   42.331440   36.945546
 H   27.838687   42.286371   40.024825
 H   29.352386   43.685850   41.004912
