33 
4l31_ligand_ani-2x.xyz
 C   -5.550255  -11.401138   -4.489650
 O   -5.549378  -11.559521   -5.909131
 C   -6.522065  -10.887384   -6.548832
 O   -7.336473  -10.201753   -5.971641
 C   -6.482984  -11.080086   -8.023929
 C   -7.449859  -10.426025   -8.787876
 C   -7.458491  -10.564554  -10.165996
 C   -5.526105  -11.883915   -8.647037
 C   -5.538164  -12.028523  -10.023185
 C   -6.500971  -11.364293  -10.799812
 C   -6.493525  -11.498686  -12.275639
 O   -5.782229  -12.584560  -12.691605
 C   -5.726642  -12.882777  -14.024999
 C   -5.035280  -14.044436  -14.372465
 C   -4.940552  -14.392256  -15.709913
 C   -5.524727  -13.591366  -16.698516
 C   -6.202896  -12.441464  -16.335362
 C   -6.312197  -12.073239  -14.990241
 C   -7.032736  -10.843911  -14.585949
 O   -7.545799  -10.079185  -15.389229
 C   -7.073458  -10.641995  -13.145004
 H   -5.417915  -10.350402   -4.221137
 H   -6.491900  -11.756842   -4.064867
 H   -4.714494  -11.999123   -4.127669
 H   -8.184380   -9.810486   -8.278996
 H   -8.231571  -10.065226  -10.743073
 H   -4.780097  -12.391987   -8.044747
 H   -4.800919  -12.655420  -10.514043
 H   -4.589544  -14.645662  -13.586780
 H   -4.406138  -15.295446  -15.991837
 H   -5.445430  -13.870237  -17.745002
 H   -6.667012  -11.793696  -17.074284
 H   -7.575115   -9.750408  -12.794154
