34 
4l33_ligand_xtb.xyz
 N  -43.019090  -11.360256    3.845169
 C  -41.900522  -11.386057    4.071941
 C  -40.486432  -11.424168    4.384638
 O  -40.291736  -11.616887    5.782305
 C  -39.783373  -10.579268    6.477544
 O  -39.461325   -9.537249    5.965224
 C  -39.657250  -10.885183    7.918735
 C  -39.051363   -9.936012    8.741418
 C  -38.910798  -10.172370   10.092149
 C  -40.132348  -12.072999    8.469976
 C  -39.993941  -12.305751    9.822466
 C  -39.375123  -11.365279   10.648618
 C  -39.231508  -11.645558   12.083997
 O  -40.150321  -12.519570   12.544547
 C  -40.124509  -12.877886   13.853983
 C  -41.098025  -13.778545   14.287486
 C  -41.118182  -14.176521   15.606278
 C  -40.176405  -13.687496   16.507967
 C  -39.215913  -12.798674   16.082487
 C  -39.175208  -12.379979   14.750698
 C  -38.150122  -11.429242   14.283340
 O  -37.290890  -10.959294   15.009200
 C  -38.267653  -11.111405   12.867924
 H  -40.020286  -10.475297    4.079332
 H  -40.017732  -12.263790    3.858833
 H  -38.701157   -9.016015    8.298706
 H  -38.459317   -9.422524   10.721985
 H  -40.610006  -12.803895    7.836913
 H  -40.358913  -13.225970   10.251736
 H  -41.820619  -14.146038   13.575830
 H  -41.871842  -14.873264   15.940655
 H  -40.203184  -14.006880   17.538343
 H  -38.471437  -12.399811   16.754709
 H  -37.534071  -10.439166   12.455468
