34 
4l33_ligand_ani-2x.xyz
 N  -42.284025  -12.962549    3.489450
 C  -41.602748  -12.124463    3.898771
 C  -40.738644  -11.066382    4.431247
 O  -40.578624  -11.348459    5.817880
 C  -39.802067  -10.470730    6.492243
 O  -39.283636   -9.518382    5.955993
 C  -39.669687  -10.812930    7.931282
 C  -38.889583   -9.975699    8.728534
 C  -38.728638  -10.252400   10.076153
 C  -40.298304  -11.927630    8.490113
 C  -40.143695  -12.200804    9.837867
 C  -39.350714  -11.369594   10.645230
 C  -39.164183  -11.681065   12.082013
 O  -40.118177  -12.532882   12.553666
 C  -40.121632  -12.873436   13.878038
 C  -41.165286  -13.696489   14.304129
 C  -41.215328  -14.079517   15.634355
 C  -40.234348  -13.652288   16.537233
 C  -39.205239  -12.839790   16.095809
 C  -39.137287  -12.439610   14.757111
 C  -38.040510  -11.571991   14.268940
 O  -37.132873  -11.179930   14.987101
 C  -38.154272  -11.230366   12.858568
 H  -41.199514  -10.084487    4.287176
 H  -39.770114  -11.068078    3.922102
 H  -38.416215   -9.114716    8.268008
 H  -38.135379   -9.578628   10.687720
 H  -40.906523  -12.571103    7.862056
 H  -40.632665  -13.061970   10.281254
 H  -41.910882  -14.015563   13.583204
 H  -42.024311  -14.718733   15.977544
 H  -40.279949  -13.957510   17.578364
 H  -38.424655  -12.490312   16.766306
 H  -37.370893  -10.609815   12.445142
