32 
4l34_ligand_aiqm1.xyz
 C    7.912999   37.870557   12.788968
 C    7.812729   37.693616   14.233467
 O    8.587475   38.207641   15.029522
 C    6.686627   36.836534   14.649742
 C    6.431216   36.564746   16.003669
 C    5.370341   35.757521   16.371256
 C    4.543093   35.205733   15.384089
 C    4.773483   35.457587   14.041200
 C    5.847196   36.273589   13.689835
 O    6.029976   36.485719   12.348725
 C    7.041558   37.288518   11.935706
 C    7.079665   37.420183   10.466712
 C    7.724391   38.508583    9.862627
 C    7.774663   38.611438    8.478212
 C    6.477462   36.447240    9.661236
 C    6.530608   36.546685    8.280048
 C    7.182356   37.628959    7.680289
 C    7.223304   37.708878    6.220614
 N    7.829897   38.662195    5.494678
 N    7.654371   38.400498    4.188612
 N    6.958609   37.316268    4.135684
 N    6.672611   36.858144    5.376743
 H    8.724172   38.476797   12.414477
 H    7.093479   37.009458   16.732691
 H    5.178591   35.551945   17.414621
 H    3.711432   34.573905   15.665257
 H    4.147448   35.041710   13.264877
 H    8.171560   39.285647   10.467251
 H    8.273138   39.465737    8.035304
 H    5.970687   35.615076   10.130265
 H    6.072453   35.799369    7.647924
 H    8.353409   39.467527    5.779697
