46 
4l70_ligand_xtb.xyz
 C   -1.249173   -1.618051   -1.437215
 C   -1.175567   -1.222077   -2.760617
 C   -1.315611    0.113490   -3.094160
 C   -1.522764    1.052185   -2.098259
 C   -1.600008    0.654460   -0.776421
 C   -1.469166   -0.686113   -0.432443
 C   -1.597360   -1.132886    1.006145
 C   -3.053798   -1.014313    1.479842
 C   -3.244537   -1.584171    2.879409
 N   -0.716241   -0.364773    1.864977
 C    0.316129   -0.906942    2.535769
 O    0.561508   -2.097020    2.544539
 C    1.209986    0.110159    3.232661
 C    2.548227    0.149499    2.474239
 C    2.296696    0.303994    1.002877
 N    2.127744    1.475385    0.508773
 C    1.913311    1.589476   -0.843112
 C    1.740345    2.863130   -1.394337
 C    1.573015    3.008996   -2.752365
 C    1.576938    1.897747   -3.593484
 C    1.728122    0.635330   -3.066552
 C    1.889733    0.467670   -1.691261
 C    2.021585   -0.865413   -1.111554
 O    1.967745   -1.918638   -1.708310
 N    2.230989   -0.840206    0.263532
 H   -1.129742   -2.660157   -1.181530
 H   -1.000985   -1.959126   -3.529245
 H   -1.262627    0.425005   -4.126537
 H   -1.623364    2.097523   -2.350797
 H   -1.771084    1.400312   -0.012269
 H   -1.269993   -2.173523    1.101413
 H   -3.685620   -1.551596    0.770463
 H   -3.352212    0.036594    1.461065
 H   -4.283867   -1.496179    3.186413
 H   -2.625581   -1.052309    3.598519
 H   -2.963747   -2.634177    2.902497
 H   -0.832672    0.636013    1.856479
 H    0.755240    1.100100    3.232954
 H    1.386649   -0.208238    4.260259
 H    3.090054   -0.779342    2.656514
 H    3.142023    0.993439    2.823822
 H    1.753790    3.714820   -0.732542
 H    1.445125    3.995692   -3.173693
 H    1.458101    2.030948   -4.658260
 H    1.730313   -0.245093   -3.690686
 H    2.281950   -1.741822    0.727587
