63 
4l7d_ligand_xtb.xyz
 C    1.675846    4.442930   -2.813247
 C    1.781926    3.163471   -2.307183
 C    0.837033    2.679582   -1.409262
 C    1.006427    1.275133   -0.887612
 C   -0.229464    3.486925   -1.023129
 C   -1.266584    2.957486   -0.071830
 C   -0.731943    1.765447    0.716961
 C    2.249015    1.196805    0.041187
 C    0.611988    5.242685   -2.435676
 C   -1.505240    5.653546   -1.175154
 C   -0.349399    4.776427   -1.552021
 N   -0.176479    0.798304   -0.199297
 N    2.348999   -0.067471    0.706157
 C    2.746364   -1.280988    0.028317
 C    2.608249   -2.312591    1.100972
 C    2.871555   -3.667122    1.082962
 C    2.622833   -4.398954    2.235638
 C    2.122299   -3.792126    3.379633
 C    1.854244   -2.433420    3.400578
 C    2.103381   -1.704828    2.250798
 C    1.903604   -0.268245    1.977196
 O    1.449783    0.596043    2.704472
 C   -0.655603   -0.422293   -0.519131
 O   -0.059015   -1.138490   -1.312230
 C   -1.960302   -0.855817    0.137087
 C   -1.697833   -1.500777    1.506640
 C   -1.069516   -2.883317    1.372216
 C   -1.969411   -3.800035    0.552406
 C   -2.133375   -3.224181   -0.847067
 C   -2.731870   -1.816977   -0.783398
 C   -2.852435   -1.250288   -2.181788
 O   -2.822210    0.095265   -2.210059
 O   -3.003898   -1.896243   -3.181645
 H    2.413405    4.814477   -3.508549
 H    2.596420    2.525990   -2.618270
 H    1.166468    0.594618   -1.732645
 H   -2.146187    2.645784   -0.645608
 H   -1.579142    3.737258    0.623849
 H   -1.516076    1.325238    1.327619
 H    0.061790    2.086991    1.398192
 H    2.178000    1.961782    0.819341
 H    3.151112    1.377743   -0.549328
 H    0.522714    6.240867   -2.839192
 H   -2.451439    5.150026   -1.367353
 H   -1.469114    5.905472   -0.115287
 H   -1.482451    6.578624   -1.745151
 H    2.071385   -1.494107   -0.811187
 H    3.770132   -1.200093   -0.354632
 H    3.256282   -4.147478    0.195947
 H    2.821367   -5.460550    2.242123
 H    1.939251   -4.389133    4.260696
 H    1.462324   -1.945243    4.279392
 H   -2.589164    0.027685    0.270216
 H   -2.649837   -1.591240    2.037316
 H   -1.043009   -0.856125    2.097255
 H   -0.102922   -2.798721    0.874552
 H   -0.898131   -3.301967    2.366025
 H   -1.528876   -4.796358    0.490665
 H   -2.944794   -3.891649    1.037816
 H   -2.781576   -3.854063   -1.457689
 H   -1.160718   -3.165333   -1.334565
 H   -3.756938   -1.894965   -0.395493
 H   -2.889446    0.398383   -3.129545
