47 
4l7l_ligand_xtb.xyz
 C   -2.283495   -0.814460   -1.026331
 C   -1.363597   -1.837796   -1.168412
 C   -0.577386   -2.218100   -0.093740
 C   -0.708958   -1.564841    1.119040
 C   -1.637598   -0.548514    1.260201
 C   -2.440068   -0.167041    0.192138
 C   -3.416836    0.965831    0.339858
 C   -2.772626    2.291134   -0.112480
 C   -3.670341    3.486248    0.221012
 O   -3.813221    3.557851    1.625404
 N   -1.493182    2.457223    0.538680
 C   -0.322898    2.258957   -0.091370
 O   -0.235637    2.154282   -1.301285
 C    0.875603    2.215306    0.845744
 C    2.188595    1.939682    0.105709
 C    2.298725    0.509110   -0.336172
 N    2.989668   -0.308034    0.374069
 C    3.104009   -1.604916   -0.060393
 C    3.834996   -2.515582    0.710940
 C    3.979397   -3.817200    0.289339
 C    3.406176   -4.245900   -0.907420
 C    2.681798   -3.364945   -1.677760
 C    2.520207   -2.042082   -1.263457
 C    1.719607   -1.103517   -2.048720
 O    1.142298   -1.353792   -3.086110
 N    1.666233    0.163362   -1.488527
 H   -2.890074   -0.517297   -1.869393
 H   -1.248452   -2.330141   -2.121456
 H    0.136450   -3.021235   -0.200026
 H   -0.089069   -1.851053    1.956783
 H   -1.750382   -0.054480    2.216273
 H   -4.305488    0.785248   -0.266168
 H   -3.718472    1.073068    1.383216
 H   -2.575360    2.266856   -1.188405
 H   -3.206782    4.404840   -0.163925
 H   -4.645590    3.353050   -0.264816
 H   -4.397522    4.289770    1.844247
 H   -1.529114    2.528457    1.543708
 H    0.706140    1.438473    1.594023
 H    0.943731    3.176454    1.360520
 H    2.248963    2.593181   -0.766534
 H    3.025396    2.143369    0.773215
 H    4.276017   -2.168333    1.632019
 H    4.544107   -4.516340    0.889198
 H    3.531425   -5.270079   -1.225851
 H    2.221806   -3.668179   -2.606514
 H    1.051003    0.852404   -1.924170
