47 
4l7l_ligand_aiqm1.xyz
 C   -2.485786   -0.535596   -1.115588
 C   -1.649624   -1.647153   -1.191552
 C   -1.156356   -2.230426   -0.026227
 C   -1.521844   -1.717769    1.214303
 C   -2.360233   -0.605508    1.283693
 C   -2.842888    0.006336    0.122278
 C   -3.649215    1.275011    0.208933
 C   -2.828230    2.513899   -0.187297
 C   -3.576114    3.805337    0.099514
 O   -3.733928    3.895471    1.514466
 N   -1.552171    2.543442    0.512568
 C   -0.406677    2.108288   -0.048925
 O   -0.272505    1.940327   -1.256350
 C    0.716858    1.855306    0.944930
 C    2.096375    1.696162    0.293701
 C    2.393895    0.292728   -0.167500
 N    3.340924   -0.381980    0.393529
 C    3.580006   -1.661080   -0.102703
 C    4.594629   -2.427586    0.486493
 C    4.868145   -3.700199    0.014031
 C    4.140026   -4.239654   -1.058409
 C    3.137208   -3.493946   -1.645870
 C    2.849406   -2.206401   -1.170727
 C    1.775999   -1.419621   -1.783609
 O    1.077252   -1.792303   -2.710098
 N    1.611838   -0.176863   -1.195633
 H   -2.846053   -0.070453   -2.027853
 H   -1.350768   -2.031555   -2.158266
 H   -0.489285   -3.081760   -0.087389
 H   -1.152918   -2.176681    2.123687
 H   -2.647100   -0.201120    2.250292
 H   -4.518744    1.221378   -0.448969
 H   -4.015302    1.410680    1.229571
 H   -2.598260    2.479092   -1.249981
 H   -2.992616    4.651639   -0.273596
 H   -4.548510    3.789978   -0.401511
 H   -4.221391    4.692068    1.722933
 H   -1.594231    2.615313    1.516094
 H    0.448568    0.960925    1.514242
 H    0.739735    2.683650    1.656455
 H    2.161714    2.354825   -0.575342
 H    2.876035    1.968543    1.002522
 H    5.150592   -1.997099    1.309082
 H    5.655189   -4.283735    0.476150
 H    4.366013   -5.233376   -1.422662
 H    2.557721   -3.873473   -2.476684
 H    0.872821    0.425237   -1.550824
