49 
4l7u_ligand_ani-2x.xyz
 C   -3.335931    1.549547   -0.015954
 C   -3.328252    2.419168   -1.101679
 C   -2.122742    2.775328   -1.699413
 C   -0.928723    2.260471   -1.206701
 C   -0.938265    1.391967   -0.118050
 C   -2.142826    1.025831    0.487615
 C   -2.160733    0.059491    1.649328
 C   -2.401840   -1.412302    1.228978
 C   -3.831645   -1.583948    0.746081
 O   -4.789162   -1.218576    1.387981
 O   -3.929904   -2.165792   -0.458338
 C   -5.268266   -2.351324   -0.924709
 N   -1.442249   -1.901423    0.269474
 C   -0.179598   -2.215403    0.641121
 O    0.179396   -2.152903    1.816733
 C    0.734851   -2.657317   -0.491882
 C    2.226192   -2.616831   -0.132009
 C    2.785245   -1.226405    0.012879
 N    3.452814   -0.692056   -0.949589
 C    3.943517    0.593794   -0.729392
 C    4.680749    1.218117   -1.752731
 C    5.183349    2.488806   -1.571263
 C    4.969318    3.182961   -0.366663
 C    4.246516    2.581833    0.644010
 C    3.734941    1.292401    0.469357
 C    2.959052    0.663116    1.547598
 O    2.697716    1.173068    2.620691
 N    2.518802   -0.612399    1.222517
 H   -4.278548    1.263337    0.448541
 H   -4.263620    2.822814   -1.480411
 H   -2.113981    3.454909   -2.548239
 H    0.014148    2.541341   -1.670341
 H    0.000524    0.996338    0.267896
 H   -1.204673    0.086511    2.181606
 H   -2.947761    0.327565    2.362597
 H   -2.306415   -2.016874    2.139621
 H   -5.827625   -2.989459   -0.236452
 H   -5.181576   -2.824672   -1.902788
 H   -5.775303   -1.386994   -1.006132
 H   -1.718339   -1.948112   -0.699774
 H    0.537193   -2.045297   -1.381868
 H    0.457915   -3.688096   -0.751747
 H    2.387317   -3.166604    0.798765
 H    2.798644   -3.101761   -0.924317
 H    4.834987    0.666783   -2.675693
 H    5.752299    2.961714   -2.368785
 H    5.371252    4.184088   -0.238852
 H    4.053207    3.079683    1.590850
 H    1.898037   -1.086236    1.880131
