82 
4lbl_ligand_ani-2x.xyz
 C   -2.834688   -2.512997    2.148383
 C   -2.357356   -2.083551    0.743139
 C   -3.264679   -2.681366   -0.334527
 C   -4.576729   -1.919194   -0.536034
 C   -4.229446   -0.415754   -0.706345
 C   -3.559883    0.028146    0.599614
 C   -3.250517    1.502787    0.884584
 C   -2.037415    2.099447    0.176850
 C   -2.066751    2.130264   -1.344716
 C   -5.815517    0.508599   -2.308963
 C   -6.880875    1.558065   -2.524351
 N   -5.395642    0.370071   -1.023831
 O   -3.762742   -2.008496    2.733283
 O   -2.146503   -3.547038    2.645837
 O   -5.284089   -2.440226   -1.626338
 O   -2.311959   -0.671961    0.698346
 O   -4.405666    2.288416    0.651365
 O   -1.949485    3.442838    0.652936
 O   -0.763798    2.413425   -1.822801
 O   -5.356193   -0.174970   -3.223059
 C    6.276139    1.259581   -0.665762
 C    5.117831    0.287735   -0.791725
 C    3.814954    0.969932   -0.356617
 C    3.648161    2.320749   -1.062042
 C    2.496739    3.130514   -0.476718
 C    5.982388    2.572308   -1.386898
 O    6.972133    3.525665   -1.179870
 O    7.455042    0.733238   -1.228971
 O    5.453928   -0.828403    0.000540
 O    2.713889    0.156029   -0.728082
 O    4.802163    3.133218   -0.884489
 O    2.677336    3.342813    0.905539
 C    2.027507   -0.439153    0.327987
 C    0.774112   -1.117304   -0.203996
 C    0.064264   -1.823837    0.968716
 C    1.021654   -2.823119    1.615930
 C    2.303137   -2.100474    2.030539
 C    3.360198   -3.063731    2.532867
 O   -0.041865   -0.148380   -0.828778
 O   -1.059413   -2.566619    0.493408
 O    1.360698   -3.832756    0.688902
 O    2.876665   -1.403323    0.927711
 O    2.832842   -3.689575    3.688182
 H   -3.470068   -3.730800   -0.099547
 H   -2.706852   -2.669834   -1.278763
 H   -5.211401   -2.038885    0.353441
 H   -3.528833   -0.364902   -1.547677
 H   -4.207890   -0.291716    1.425341
 H   -3.006200    1.546474    1.955261
 H   -1.142563    1.552899    0.502927
 H   -2.725975    2.939276   -1.680348
 H   -2.447326    1.200998   -1.785077
 H   -7.209807    1.513178   -3.562808
 H   -7.735639    1.390941   -1.861564
 H   -6.485259    2.559598   -2.318910
 H   -5.623473    1.099804   -0.360967
 H   -2.549233   -3.740060    3.509150
 H   -5.167009   -1.845189   -2.389751
 H   -4.095572    3.207473    0.660681
 H   -1.242662    3.857954    0.138435
 H   -0.258561    1.589513   -1.692978
 H    6.416433    1.492598    0.403118
 H    5.007489   -0.006720   -1.852481
 H    3.845250    1.132658    0.731292
 H    3.475205    2.141240   -2.136415
 H    2.429536    4.085252   -1.020865
 H    1.545229    2.607332   -0.604453
 H    5.862796    2.361811   -2.471841
 H    7.811692    3.114456   -1.435448
 H    7.608575   -0.115661   -0.791427
 H    4.632751   -1.293667    0.237322
 H    3.527675    3.795608    0.993350
 H    1.755274    0.326917    1.077898
 H    1.077469   -1.879900   -0.930801
 H   -0.251299   -1.082516    1.715785
 H    0.545767   -3.246642    2.511151
 H    2.070384   -1.381229    2.832776
 H    4.278089   -2.499938    2.765291
 H    3.583108   -3.788524    1.739979
 H   -0.959625   -0.350651   -0.573322
 H    0.518622   -4.190630    0.372892
 H    3.353134   -4.479430    3.870913
