82 
4lbo_ligand_ani-2x.xyz
 C    6.118914    0.008923    3.270861
 C    4.930926   -0.643652    2.587099
 C    4.849424   -0.145176    1.134421
 C    6.195892   -0.354769    0.441351
 C    6.245077    0.229389   -0.965910
 C    7.400406   -0.206772    2.466181
 O    8.489481    0.472361    2.998344
 O    6.344749   -0.539598    4.549661
 O    3.781152   -0.332965    3.350404
 O    3.879804   -0.879599    0.408508
 O    7.236237    0.287311    1.166842
 O    7.503195   -0.006025   -1.547647
 C    2.706320   -0.183204    0.121451
 C    1.868098   -0.972688   -0.868997
 C    0.481762   -0.343045   -1.027614
 C   -0.178003   -0.132848    0.348559
 C    0.765057    0.652539    1.245911
 C    0.262330    0.828688    2.670186
 O    2.563265   -0.968064   -2.098421
 O   -0.247103   -1.230604   -1.878066
 O   -0.466271   -1.376375    0.947718
 O    2.010017   -0.022392    1.342025
 O    1.123643    1.672991    3.402157
 C   -1.918777   -2.020237   -3.253614
 C   -1.575895   -0.917334   -2.229765
 C   -1.769858    0.475673   -2.807118
 C   -3.231860    0.776724   -3.110539
 C   -4.100099    0.513898   -1.848980
 C   -3.783115   -0.886422   -1.270932
 C   -4.405847   -1.272160    0.076752
 C   -3.862993   -0.567813    1.332497
 C   -3.893448    0.957710    1.304118
 C   -6.228317    1.712916   -2.327051
 C   -7.732730    1.548840   -2.298473
 N   -5.524255    0.564308   -2.148343
 O   -2.480932   -3.051096   -2.992626
 O   -1.511722   -1.705878   -4.494924
 O   -3.266703    2.121164   -3.509392
 O   -2.383744   -1.106451   -1.098690
 O   -5.810339   -1.107471    0.010086
 O   -4.716891   -1.009290    2.382133
 O   -3.680254    1.382945    2.648854
 O   -5.692912    2.806045   -2.506720
 H    5.939919    1.095386    3.330691
 H    5.087662   -1.737115    2.565807
 H    4.610158    0.930213    1.144622
 H    6.401779   -1.437475    0.382025
 H    5.488079   -0.242142   -1.599597
 H    6.022419    1.309473   -0.915051
 H    7.606393   -1.298778    2.422401
 H    8.555570    0.205253    3.927535
 H    5.513259   -0.450268    5.035141
 H    3.017755   -0.603759    2.812261
 H    8.153014    0.323443   -0.909973
 H    2.943690    0.808733   -0.304074
 H    1.739687   -1.988261   -0.471904
 H    0.612042    0.630314   -1.525611
 H   -1.095110    0.469127    0.227045
 H    0.936031    1.650039    0.806808
 H   -0.726203    1.303596    2.668266
 H    0.161795   -0.159932    3.142373
 H    2.012249   -1.469680   -2.713747
 H   -1.083483   -1.816033    0.339373
 H    2.001050    1.259382    3.431791
 H   -1.173736    0.601834   -3.712246
 H   -1.446157    1.227091   -2.077268
 H   -3.592583    0.116344   -3.918127
 H   -3.845588    1.310564   -1.144864
 H   -4.154899   -1.622026   -1.997627
 H   -4.182377   -2.341770    0.207807
 H   -2.833320   -0.894662    1.530742
 H   -3.092779    1.358260    0.669350
 H   -4.869132    1.294421    0.922901
 H   -8.060471    0.776233   -3.001306
 H   -8.192307    2.501064   -2.564142
 H   -8.071233    1.258912   -1.296726
 H   -6.045908   -0.227600   -1.794110
 H   -1.733965   -2.471641   -5.050431
 H   -4.132699    2.509814   -3.269401
 H   -6.101887   -1.118661    0.936691
 H   -4.602410   -0.353131    3.088910
 H   -4.059988    2.262835    2.752067
