14 
4lbp_ligand_aiqm1.xyz
 O  -10.927424   36.513049  -17.083342
 C  -10.780634   36.380686  -15.877777
 C   -9.727842   37.249724  -15.227444
 O   -9.100237   38.049046  -16.076251
 C   -9.463327   37.204156  -13.903693
 C  -10.219666   36.286061  -13.079250
 O  -10.072643   36.153778  -11.873674
 C  -11.272499   35.416971  -13.729552
 O  -11.900291   34.617541  -12.880913
 C  -11.537007   35.462592  -15.053308
 H   -9.492280   37.869484  -16.950372
 H   -8.710836   37.825537  -13.439664
 H  -11.508492   34.797087  -12.006668
 H  -12.289520   34.841290  -15.517394
