14 
4lbp_ligand_ani-2x.xyz
 O  -10.910470   36.530699  -17.090245
 C  -10.774718   36.386647  -15.879709
 C   -9.729653   37.245401  -15.216286
 O   -9.104516   38.044664  -16.074508
 C   -9.462894   37.203159  -13.897954
 C  -10.225462   36.279838  -13.077378
 O  -10.089544   36.135565  -11.866881
 C  -11.270719   35.421265  -13.740760
 O  -11.896035   34.622236  -12.882466
 C  -11.537465   35.463494  -15.059086
 H   -9.530055   37.829294  -16.932957
 H   -8.707339   37.827305  -13.432751
 H  -11.470660   34.837887  -12.024007
 H  -12.293170   34.839545  -15.524312
