58 
4lch_ligand_ani-2x.xyz
 O   -5.289852   -3.413343    0.566376
 N   -4.916684   -2.111604    0.855281
 C   -4.705098   -1.300233   -0.203358
 O   -4.950083   -1.668970   -1.353762
 C   -4.164614    0.092502    0.157903
 N   -2.718061    0.080584    0.061559
 C   -1.951058   -0.508076    1.013591
 O   -2.453262   -1.079288    1.984409
 C   -0.472118   -0.435686    0.829930
 C    0.152007    0.471508   -0.028807
 C    1.532500    0.482386   -0.150398
 C    2.313987   -0.416664    0.590344
 C    3.740626   -0.414149    0.460066
 C    4.947599   -0.411572    0.349528
 C    6.321883   -0.408821    0.223727
 C    7.528967   -0.406420    0.113254
 C    8.953032   -0.403535   -0.017185
 C    9.748602    0.391343    0.818291
 C   11.127427    0.395554    0.694633
 C   11.756684   -0.398858   -0.273090
 N   13.135892   -0.351348   -0.438782
 C   10.965187   -1.194802   -1.111868
 C    9.586753   -1.195187   -0.983863
 C    1.684097   -1.312883    1.465885
 C    0.304807   -1.312780    1.587337
 C   -4.739643    1.174678   -0.802265
 O   -4.188333    0.940361   -2.087827
 C   -4.304203    2.568393   -0.354343
 C   -6.264602    1.100358   -0.844885
 C   -7.011288    1.060887    0.333113
 C   -8.397709    1.023363    0.303581
 C   -9.066129    1.030158   -0.923055
 O  -10.426124    0.991177   -0.894092
 C   -8.335768    1.078403   -2.109149
 C   -6.945880    1.111953   -2.060047
 H   -5.249795   -3.433324   -0.411213
 H   -4.256137   -2.065280    1.629633
 H   -4.418629    0.304664    1.197716
 H   -2.342779    0.299689   -0.849723
 H   -0.428545    1.199370   -0.592564
 H    2.013071    1.184729   -0.824734
 H    9.275539    1.011995    1.573593
 H   11.730845    1.022799    1.347303
 H   13.657169   -0.061775    0.376433
 H   13.544653   -1.164709   -0.876405
 H   11.441782   -1.810810   -1.871421
 H    8.986849   -1.817938   -1.640956
 H    2.284318   -2.003731    2.049981
 H   -0.197673   -1.989456    2.271427
 H   -4.455642    0.027820   -2.317435
 H   -3.216942    2.630693   -0.250016
 H   -4.759056    2.813129    0.612384
 H   -4.632692    3.312307   -1.085182
 H   -6.511990    1.064637    1.302300
 H   -8.980313    0.990305    1.218694
 H  -10.761861    1.001989   -1.799372
 H   -8.849267    1.082385   -3.070325
 H   -6.372744    1.151420   -2.982350
