58 
4lch_ligand_xtb.xyz
 O   -4.995178   -3.211799    1.379479
 N   -4.653191   -1.858031    1.347273
 C   -4.684853   -1.227403    0.173275
 O   -5.094074   -1.761830   -0.851879
 C   -4.145743    0.205104    0.245363
 N   -2.702498    0.152449    0.163148
 C   -1.938989   -0.211042    1.216433
 O   -2.442284   -0.522968    2.290648
 C   -0.474372   -0.204893    0.996161
 C    0.144526    0.546683   -0.003066
 C    1.514473    0.517113   -0.147946
 C    2.300489   -0.269462    0.702263
 C    3.695069   -0.302996    0.547403
 C    4.902146   -0.332841    0.413416
 C    6.240826   -0.366258    0.264761
 C    7.447989   -0.396535    0.130669
 C    8.842031   -0.432173   -0.023564
 C    9.632320   -1.205952    0.833291
 C   10.998671   -1.242991    0.678436
 C   11.622600   -0.508600   -0.334777
 N   12.992070   -0.493392   -0.445402
 C   10.830952    0.263810   -1.190269
 C    9.464327    0.303164   -1.038177
 C    1.680624   -1.014368    1.711865
 C    0.312242   -0.973253    1.855317
 C   -4.681691    1.033982   -0.950368
 O   -4.087952    0.516188   -2.122433
 C   -4.251684    2.498146   -0.820994
 C   -6.199815    0.959488   -1.004743
 C   -6.977774    1.084623    0.141106
 C   -8.354455    1.026546    0.071889
 C   -8.986516    0.846200   -1.154323
 O  -10.344989    0.790464   -1.179567
 C   -8.217174    0.737765   -2.304748
 C   -6.838817    0.796244   -2.225150
 H   -5.293631   -3.399384    0.467590
 H   -4.052941   -1.553610    2.115305
 H   -4.412639    0.649002    1.208052
 H   -2.327282    0.239594   -0.771459
 H   -0.436963    1.180342   -0.657122
 H    1.994511    1.103725   -0.917691
 H    9.158748   -1.777991    1.617862
 H   11.603737   -1.842976    1.343484
 H   13.499353   -1.235688    0.006358
 H   13.380841   -0.170354   -1.315417
 H   11.305778    0.833898   -1.976367
 H    8.860536    0.901437   -1.704971
 H    2.285233   -1.615635    2.374626
 H   -0.179429   -1.536196    2.634499
 H   -4.409428   -0.397962   -2.204305
 H   -3.172639    2.569478   -0.713453
 H   -4.730560    2.954550    0.039964
 H   -4.549253    3.031074   -1.719669
 H   -6.516087    1.231409    1.105326
 H   -8.960031    1.116855    0.959303
 H  -10.649385    0.654911   -2.085027
 H   -8.697723    0.605170   -3.265264
 H   -6.250354    0.717470   -3.126612
