23 
4led_ligand_ani-2x.xyz
 O   -1.223465   -1.769353   -0.910013
 C   -0.416155   -0.910202   -0.114919
 C   -1.098133    0.415192    0.215527
 C   -2.336906    0.260550    1.076751
 C    0.841402   -0.655350   -0.930793
 O    1.532168   -1.873741   -1.139884
 C    1.769803    0.264310   -0.152811
 O    2.226038   -0.389466    1.009546
 C    1.015405    1.516988    0.274121
 O   -0.176108    1.221024    0.958128
 O    0.774548    2.255049   -0.898189
 H   -1.852631   -2.218069   -0.333658
 H   -0.124435   -1.400068    0.826181
 H   -1.350979    0.917391   -0.731196
 H   -2.082888   -0.249788    2.011889
 H   -2.748361    1.243641    1.319425
 H   -3.106370   -0.319017    0.555349
 H    0.564829   -0.188951   -1.888591
 H    0.853430   -2.519283   -1.389880
 H    2.606484    0.573080   -0.797116
 H    2.483025   -1.274796    0.711002
 H    1.626813    2.091051    0.981437
 H    0.222387    3.010008   -0.652406
