43 
4lgg_ligand_ani-2x.xyz
 C   -4.433172   -4.434991   -9.335009
 C   -5.839742   -4.648082   -8.781137
 C   -6.501890   -3.292707   -8.505004
 C   -6.681346   -5.439444   -9.789594
 N   -5.761313   -5.409181   -7.519879
 N   -4.576353   -5.812603   -6.987765
 C   -6.804123   -5.797629   -6.732397
 N   -8.120428   -5.586193   -6.913902
 C   -8.862683   -6.100750   -5.947088
 N   -8.478444   -6.780422   -4.854833
 C   -7.168989   -6.992392   -4.692891
 N   -6.755631   -7.649358   -3.577364
 C   -6.251632   -6.487719   -5.645174
 C   -4.847496   -6.457037   -5.873547
 C   -3.751829   -7.069750   -5.052085
 C   -3.862124   -8.582711   -4.900335
 C   -3.260213   -9.218346   -3.814974
 C   -4.516602   -9.361328   -5.858113
 C   -4.581169  -10.741108   -5.711559
 C   -3.987553  -11.358978   -4.614938
 C   -3.317073  -10.605591   -3.651698
 C   -2.671350  -11.268492   -2.458038
 H   -3.819191   -3.880008   -8.621143
 H   -3.947980   -5.394983   -9.529472
 H   -4.484986   -3.869643  -10.271405
 H   -7.510554   -3.436208   -8.110568
 H   -5.916210   -2.723001   -7.776966
 H   -6.560229   -2.711303   -9.432008
 H   -6.226191   -6.415441   -9.983834
 H   -7.691733   -5.592904   -9.403652
 H   -6.739675   -4.891147  -10.736540
 H   -9.935779   -5.956295   -6.042720
 H   -7.493756   -8.095958   -3.051863
 H   -5.875039   -8.141276   -3.621620
 H   -3.741899   -6.615994   -4.051440
 H   -2.810066   -6.802482   -5.544394
 H   -2.740402   -8.620675   -3.063892
 H   -4.988837   -8.872548   -6.709164
 H   -5.098532  -11.340784   -6.456611
 H   -4.043256  -12.440461   -4.505372
 H   -1.592593  -11.074057   -2.430089
 H   -3.097436  -10.896134   -1.518796
 H   -2.813502  -12.352487   -2.480930
