43 
4lgg_ligand_aiqm1.xyz
 C   -4.533721   -4.371041   -9.391938
 C   -5.904930   -4.616396   -8.777158
 C   -6.558834   -3.283255   -8.413593
 C   -6.780560   -5.401752   -9.753584
 N   -5.744992   -5.417152   -7.537913
 N   -4.524404   -5.822656   -7.094729
 C   -6.721356   -5.838339   -6.699091
 N   -8.047961   -5.627627   -6.825491
 C   -8.729734   -6.187914   -5.838422
 N   -8.281056   -6.906730   -4.792670
 C   -6.960644   -7.093702   -4.688439
 N   -6.521222   -7.779606   -3.603488
 C   -6.100664   -6.545687   -5.663630
 C   -4.708823   -6.488625   -5.968692
 C   -3.550428   -7.097060   -5.240007
 C   -3.726886   -8.588725   -5.027049
 C   -3.355442   -9.178692   -3.818034
 C   -4.284540   -9.393836   -6.026941
 C   -4.451412  -10.758308   -5.810041
 C   -4.068326  -11.332215   -4.599654
 C   -3.510652  -10.552050   -3.587341
 C   -3.093386  -11.159911   -2.273321
 H   -3.890771   -3.825302   -8.701530
 H   -4.048454   -5.313092   -9.647777
 H   -4.660862   -3.780428  -10.299925
 H   -7.542994   -3.447733   -7.977223
 H   -5.934770   -2.741271   -7.700188
 H   -6.667491   -2.677293   -9.316091
 H   -6.311723   -6.358863   -9.991827
 H   -7.765064   -5.580704   -9.323752
 H   -6.894889   -4.828287  -10.676276
 H   -9.803986   -6.060117   -5.872168
 H   -7.239554   -8.248275   -3.075995
 H   -5.605236   -8.195462   -3.619524
 H   -3.415153   -6.605019   -4.271279
 H   -2.657087   -6.898880   -5.836038
 H   -2.930105   -8.557744   -3.034295
 H   -4.588490   -8.944921   -6.963508
 H   -4.887035  -11.378286   -6.582970
 H   -4.205933  -12.395177   -4.440803
 H   -2.015002  -11.074251   -2.129608
 H   -3.573507  -10.650390   -1.435955
 H   -3.360921  -12.215825   -2.231844
