43 
4lgg_ligand_xtb.xyz
 C   -4.564629   -4.395042   -9.391585
 C   -5.928348   -4.637676   -8.752085
 C   -6.586214   -3.313233   -8.356996
 C   -6.841489   -5.420036   -9.699374
 N   -5.739787   -5.429172   -7.545499
 N   -4.527843   -5.831448   -7.131801
 C   -6.695680   -5.853421   -6.696131
 N   -8.018114   -5.651539   -6.769360
 C   -8.679680   -6.201214   -5.776958
 N   -8.206058   -6.911626   -4.762315
 C   -6.892850   -7.122415   -4.678887
 N   -6.444513   -7.812756   -3.608459
 C   -6.045625   -6.581227   -5.667267
 C   -4.671750   -6.513585   -6.018771
 C   -3.493806   -7.093206   -5.308365
 C   -3.659961   -8.571279   -5.079173
 C   -3.442992   -9.128788   -3.824315
 C   -4.057979   -9.398015   -6.122689
 C   -4.236907  -10.752016   -5.907639
 C   -4.020560  -11.294694   -4.653149
 C   -3.616115  -10.488619   -3.596728
 C   -3.358745  -11.077539   -2.243010
 H   -3.913107   -3.865409   -8.702337
 H   -4.092107   -5.339810   -9.645117
 H   -4.685008   -3.803252  -10.294770
 H   -7.540443   -3.507724   -7.874385
 H   -5.947612   -2.764725   -7.667775
 H   -6.753660   -2.702313   -9.239730
 H   -6.384331   -6.370394   -9.967052
 H   -7.794879   -5.611773   -9.213996
 H   -7.014639   -4.848208  -10.606840
 H   -9.753827   -6.065459   -5.787851
 H   -7.148020   -8.252037   -3.038768
 H   -5.519574   -8.213338   -3.626494
 H   -3.352717   -6.581100   -4.351884
 H   -2.613084   -6.906117   -5.927824
 H   -3.121628   -8.493340   -3.008696
 H   -4.227306   -8.972528   -7.100703
 H   -4.548499  -11.389157   -6.722140
 H   -4.164058  -12.353054   -4.490697
 H   -2.372979  -11.542950   -2.222146
 H   -3.387926  -10.312528   -1.470642
 H   -4.093956  -11.844838   -2.009394
