46 
4lgh_ligand_xtb.xyz
 N   -7.998292    4.744051   -7.309617
 C   -8.365755    5.836053   -6.652164
 N   -7.615113    6.822795   -6.218463
 C   -6.314353    6.654205   -6.492057
 C   -5.775477    5.536710   -7.177070
 C   -6.708098    4.564441   -7.589361
 C   -3.934510    9.304866   -5.375726
 C   -6.250339    9.684499   -6.282703
 C   -2.634797    0.915880  -11.057601
 C   -2.288718    1.154526   -9.719968
 C   -4.475607    5.363650  -11.396598
 C   -4.162337    5.601811  -10.053242
 C   -3.260234    1.890857  -11.780121
 C   -4.198405    4.150434  -11.958463
 C   -3.573871    4.641352   -9.265987
 C   -4.382343    5.804208   -7.224627
 C   -3.571611    3.139680  -11.201725
 N   -5.283222    7.468945   -6.193741
 C   -5.347036    8.739246   -5.486521
 C   -5.940642    8.484273   -4.098867
 N   -4.126394    6.950812   -6.638519
 N   -6.360142    3.422028   -8.219770
 C   -3.304909    4.958373   -7.815113
 C   -3.239313    3.381401   -9.838395
 C   -2.582471    2.350972   -9.128031
 H   -9.426777    5.924170   -6.455458
 H   -3.509085    9.456835   -6.363689
 H   -3.962003   10.255056   -4.849621
 H   -3.293062    8.615697   -4.833831
 H   -5.839509    9.853884   -7.275875
 H   -7.241287    9.248770   -6.380387
 H   -6.332468   10.639784   -5.771738
 H   -2.397841   -0.036274  -11.508540
 H   -1.782474    0.384044   -9.157203
 H   -4.941897    6.145476  -11.977364
 H   -4.393281    6.565998   -9.624254
 H   -3.524067    1.725423  -12.814995
 H   -4.444336    3.948668  -12.990872
 H   -6.932968    8.052164   -4.198341
 H   -5.310833    7.796263   -3.538793
 H   -6.014427    9.417762   -3.547876
 H   -7.113142    2.855874   -8.572166
 H   -5.455934    3.348135   -8.655365
 H   -2.359443    5.499143   -7.720154
 H   -3.231657    4.042377   -7.224915
 H   -2.290523    2.509485   -8.101411
