46 
4lgh_ligand_ani-2x.xyz
 N   -8.143512    4.809578   -7.307833
 C   -8.468742    5.944080   -6.668332
 N   -7.680283    6.911074   -6.226988
 C   -6.378347    6.678340   -6.475726
 C   -5.885546    5.541640   -7.128258
 C   -6.847179    4.594438   -7.557338
 C   -3.877979    9.268940   -5.337669
 C   -6.148071    9.745496   -6.281310
 C   -2.381387    0.959021  -11.131605
 C   -2.022502    1.222588   -9.794392
 C   -4.607535    5.260319  -11.397639
 C   -4.327147    5.497435  -10.034418
 C   -3.106972    1.881788  -11.835817
 C   -4.230230    4.083367  -11.986062
 C   -3.681211    4.560440   -9.258840
 C   -4.476509    5.728348   -7.162752
 C   -3.518200    3.104356  -11.241238
 N   -5.297714    7.451765   -6.168652
 C   -5.307976    8.751157   -5.470672
 C   -5.926345    8.564584   -4.079773
 N   -4.144283    6.863329   -6.587904
 N   -6.495249    3.439994   -8.178260
 C   -3.455047    4.810771   -7.774847
 C   -3.196743    3.357404   -9.878550
 C   -2.413787    2.390943   -9.188606
 H   -9.532488    6.080445   -6.491156
 H   -3.424020    9.400231   -6.323314
 H   -3.879605   10.233312   -4.818867
 H   -3.265303    8.563967   -4.770038
 H   -5.724727    9.875865   -7.281927
 H   -7.174764    9.384980   -6.377814
 H   -6.156881   10.720083   -5.780473
 H   -2.071615    0.028130  -11.600185
 H   -1.437274    0.495382   -9.238690
 H   -5.133567    6.017184  -11.974533
 H   -4.658403    6.427574   -9.576338
 H   -3.377575    1.697047  -12.872912
 H   -4.456577    3.885017  -13.031087
 H   -6.951397    8.196686   -4.166480
 H   -5.342275    7.846840   -3.495557
 H   -5.933961    9.520692   -3.544473
 H   -7.264295    2.913081   -8.566638
 H   -5.617126    3.405558   -8.681050
 H   -2.471477    5.261234   -7.597085
 H   -3.489450    3.856639   -7.231574
 H   -2.109724    2.583658   -8.163627
