46 
4lgh_ligand_dft.xyz
 N   -1.663399    3.155027   -0.503322
 C   -2.941447    2.817820   -0.263791
 N   -3.467965    1.617726   -0.081464
 C   -2.547194    0.639306   -0.184706
 C   -1.185150    0.827916   -0.452461
 C   -0.765294    2.169907   -0.591759
 C   -3.741623   -2.911344    0.266252
 C   -4.550561   -0.922934    1.566749
 C    5.961247   -0.656644   -0.754101
 C    4.999062   -1.122158   -1.677034
 C    2.434807    0.496149    2.362442
 C    1.463633    0.051168    1.435674
 C    5.558053   -0.146702    0.452093
 C    3.763811    0.441385    2.046834
 C    1.816983   -0.445389    0.202656
 C   -0.635413   -0.485867   -0.488154
 C    4.182489   -0.074004    0.791868
 N   -2.742354   -0.699452   -0.065236
 C   -4.011958   -1.407809    0.214110
 C   -5.004594   -1.089325   -0.911959
 N   -1.577182   -1.374841   -0.252978
 N    0.524408    2.512408   -0.843819
 C    0.766378   -0.911903   -0.791987
 C    3.207033   -0.530047   -0.141348
 C    3.661229   -1.060712   -1.379135
 H   -3.633534    3.655010   -0.203670
 H   -3.024314   -3.162106    1.051552
 H   -4.686725   -3.422072    0.476814
 H   -3.346811   -3.280420   -0.683302
 H   -3.830671   -1.138924    2.363072
 H   -4.744037    0.152462    1.545631
 H   -5.486637   -1.442173    1.797310
 H    7.017059   -0.708476   -1.001830
 H    5.322012   -1.533907   -2.628479
 H    2.112667    0.883916    3.323968
 H    0.413917    0.107896    1.706956
 H    6.290410    0.208428    1.172625
 H    4.517012    0.786497    2.750233
 H   -5.203744   -0.015939   -0.962514
 H   -4.606409   -1.422161   -1.876021
 H   -5.949089   -1.612217   -0.728696
 H    0.731935    3.497424   -0.765397
 H    1.257781    1.872549   -0.572359
 H    0.777990   -2.005914   -0.861543
 H    1.024494   -0.533347   -1.789494
 H    2.943183   -1.435471   -2.100608
