14 
4lh2_ligand_aiqm1.xyz
 C   19.490594    2.306726   -3.760838
 O   19.641672    1.351393   -4.688488
 O   19.678659    3.464771   -4.021553
 C   19.070408    1.830172   -2.376055
 C   20.143175    1.015937   -1.646461
 C   20.278774   -0.408246   -2.139089
 O   19.676065   -0.866414   -3.078018
 O   21.130762   -1.186589   -1.454435
 H   19.497648    0.475285   -4.285256
 H   18.155699    1.241801   -2.465055
 H   18.849332    2.723111   -1.799080
 H   19.904006    0.974071   -0.580651
 H   21.117841    1.505377   -1.732196
 H   21.541867   -0.688493   -0.741526
