14 
4lh2_ligand_xtb.xyz
 C   19.517460    2.306078   -3.753549
 O   19.627029    1.379728   -4.697669
 O   19.768114    3.459880   -3.961442
 C   19.051594    1.809732   -2.382007
 C   20.147485    1.031225   -1.643095
 C   20.292874   -0.394047   -2.140321
 O   19.732818   -0.822752   -3.114592
 O   21.094971   -1.177472   -1.418147
 H   19.473529    0.472091   -4.356648
 H   18.171667    1.174774   -2.507490
 H   18.776918    2.687589   -1.797048
 H   19.914063    1.000722   -0.574311
 H   21.109758    1.540203   -1.759650
 H   21.498220   -0.728850   -0.662731
