17 
4lh3_ligand_aiqm1.xyz
 C   19.994510   -0.997993   -0.193368
 C   19.554108    0.398182   -0.588714
 C   19.726291    0.660141   -2.077120
 C   19.278126    2.064972   -2.447529
 C   19.388824    2.480799   -3.904416
 O   20.430558   -1.816326   -0.950741
 O   19.863867   -1.287310    1.122442
 O   19.876008    1.580374   -4.782674
 O   19.057129    3.571347   -4.275037
 H   20.134219    1.119947   -0.005495
 H   18.506308    0.523390   -0.298812
 H   19.155125   -0.088570   -2.633544
 H   20.776365    0.505600   -2.341434
 H   19.845090    2.807521   -1.881740
 H   18.231698    2.215805   -2.173250
 H   19.502039   -0.529981    1.591264
 H   20.096834    0.756301   -4.337231
