32 
4lhm_ligand_ani-2x.xyz
 O   -1.688472    1.409535    1.994362
 C   -1.887412    0.024918    1.846409
 C   -2.300759   -0.314269    0.414326
 O   -1.478474    0.484567   -0.460100
 C   -2.038107   -1.774528    0.040492
 N   -2.972950   -2.190702   -1.033107
 N   -4.001198   -2.734874   -0.625982
 N   -4.966522   -3.261055   -0.349856
 C   -0.617847   -1.719899   -0.516727
 C   -0.516370   -0.313158   -1.123689
 N    0.796146    0.306027   -0.972875
 C    1.612853    0.335108   -2.100894
 O    1.264591   -0.083447   -3.185221
 N    2.852804    0.887025   -1.876954
 C    3.367001    1.407477   -0.687162
 O    4.496083    1.859415   -0.649387
 C    2.439379    1.349890    0.442875
 C    2.922103    1.897291    1.750037
 C    1.218280    0.816429    0.243186
 H   -1.489124    1.740045    1.103504
 H   -0.965270   -0.522986    2.111711
 H   -2.663736   -0.296313    2.550327
 H   -3.340066   -0.031938    0.231308
 H   -2.133908   -2.451959    0.899175
 H    0.116069   -1.827651    0.290794
 H   -0.437940   -2.502442   -1.256669
 H   -0.728672   -0.309306   -2.192116
 H    3.465789    0.913853   -2.681429
 H    3.201043    2.951467    1.648873
 H    3.823737    1.371048    2.080961
 H    2.162847    1.813366    2.536720
 H    0.487905    0.767364    1.045106
