32 
4lhm_ligand_aiqm1.xyz
 O   -2.159632    1.425227    1.966938
 C   -2.085814    0.026175    1.825010
 C   -2.288747   -0.388608    0.378474
 O   -1.380044    0.363740   -0.421711
 C   -1.973821   -1.869233    0.135036
 N   -2.739147   -2.440842   -0.998858
 N   -3.961542   -2.369369   -0.824655
 N   -5.091393   -2.335193   -0.753249
 C   -0.510882   -1.834694   -0.265607
 C   -0.411495   -0.503610   -1.017538
 N    0.881294    0.144354   -0.937201
 C    1.552476    0.379464   -2.126318
 O    1.149739    0.003783   -3.206787
 N    2.744209    1.051485   -1.973417
 C    3.317651    1.548091   -0.801163
 O    4.382413    2.129314   -0.830334
 C    2.520883    1.303062    0.404338
 C    3.038872    1.833187    1.707678
 C    1.357785    0.636166    0.268877
 H   -1.680675    1.801439    1.221788
 H   -1.107683   -0.351691    2.167258
 H   -2.854353   -0.408283    2.464065
 H   -3.308152   -0.135874    0.061545
 H   -2.161507   -2.472696    1.029131
 H    0.130544   -1.833167    0.619147
 H   -0.233062   -2.670749   -0.901796
 H   -0.632867   -0.623524   -2.072338
 H    3.253558    1.222569   -2.828195
 H    3.153889    2.915091    1.660138
 H    4.022932    1.419454    1.924223
 H    2.362329    1.585816    2.524501
 H    0.712041    0.449414    1.119015
