46 
4lk7_ligand_xtb.xyz
 O    6.635636    2.918088   -0.305830
 O    2.541813    0.488460   -0.265099
 N    3.867142   -1.761502    0.752283
 O   -1.658125   -1.790140    0.194426
 C    5.938283   -0.489426    0.743521
 C    6.621562    0.683779    0.467228
 C    5.940251    1.777528   -0.044181
 C    4.568725    1.688603   -0.277171
 C    3.893111    0.515393   -0.006158
 C    4.576568   -0.591271    0.510148
 C    2.487476   -1.765914    0.636812
 C    1.848238   -0.635675    0.113062
 C    0.475014   -0.608054   -0.042829
 C   -0.285477   -1.715208    0.320468
 C    0.338894   -2.837009    0.844723
 C    1.714503   -2.856912    1.004152
 C   -2.333297   -0.762355   -0.448039
 C   -3.788790   -1.225979   -0.609588
 C   -4.585906   -0.120972   -1.306806
 C   -4.453739    1.184778   -0.505793
 C   -2.969649    1.495784   -0.264487
 C   -2.783646    2.676958    0.695764
 O   -3.881393   -2.394971   -1.385164
 O   -5.951565   -0.448624   -1.374251
 O   -5.122697    1.073019    0.719560
 O   -2.281473    0.406372    0.322241
 O   -1.429729    2.990763    0.862881
 H    6.035680    3.592134   -0.646442
 H    4.323985   -2.521722    1.228183
 H    6.469141   -1.340257    1.143073
 H    7.680954    0.761819    0.645411
 H    4.013341    2.527021   -0.670926
 H    0.030330    0.291561   -0.432354
 H   -0.259284   -3.686551    1.129610
 H    2.197091   -3.731142    1.414007
 H   -1.896377   -0.572750   -1.453584
 H   -4.197948   -1.389496    0.399098
 H   -4.176474    0.018647   -2.319885
 H   -4.890339    2.004692   -1.099643
 H   -2.505017    1.728129   -1.238673
 H   -3.266352    3.564373    0.283782
 H   -3.256563    2.413712    1.648570
 H   -3.258108   -3.036388   -1.022975
 H   -6.011551   -1.353360   -1.705027
 H   -5.970004    0.644461    0.530950
 H   -0.984535    2.188998    1.164855
