88 
4lkg_ligand_ani-2x.xyz
 C   -2.631703    0.125478   -2.945378
 C   -2.698768    0.690684   -1.514940
 C   -3.718759    1.838157   -1.502014
 C   -5.135444    1.295697   -1.509767
 C   -5.335893    0.203902   -0.427447
 C   -4.038565   -0.166824    0.301302
 C   -3.488113    0.729391    1.437139
 C   -4.524759    1.375180    2.348994
 C   -5.145701    2.664620    1.830788
 C   -7.131457   -0.974017   -1.549203
 C   -7.580695   -2.223605   -2.271242
 N   -5.867781   -1.005894   -1.040481
 O   -2.019825    0.641385   -3.848336
 O   -3.368009   -0.983108   -3.107521
 O   -6.064357    2.343446   -1.308827
 O   -3.023145   -0.395130   -0.677483
 O   -2.594288   -0.058166    2.239804
 O   -5.528455    0.416251    2.624963
 O   -6.124198    3.035935    2.797926
 O   -7.840468    0.019662   -1.405274
 C    1.788933   -0.407821   -0.170286
 C    0.361696    0.100361   -0.000646
 C   -0.271831    0.439748   -1.358903
 C    0.671908    1.290086   -2.219803
 C    2.032365    0.614825   -2.314578
 C    3.091897    1.410502   -3.062000
 O   -0.333766   -0.935788    0.651871
 O   -1.448203    1.229913   -1.159362
 O    0.861959    2.554127   -1.623223
 O    2.549181    0.435205   -1.003442
 O    4.306761    0.694706   -3.104428
 C    5.932274   -2.071366    2.616261
 C    6.104826   -1.021174    1.483107
 C    4.814553   -0.219931    1.299267
 C    3.622604   -1.158117    1.116078
 C    3.544655   -2.102664    2.309486
 C    2.454343   -3.149387    2.113023
 C    8.461535   -0.226230    1.998597
 C    9.348397    0.994062    1.882301
 N    7.150808   -0.025786    1.713092
 O    6.932320   -3.012871    2.646911
 O    5.003113    0.653454    0.199978
 O    2.414390   -0.420469    1.076877
 O    4.759111   -2.823382    2.415667
 O    2.728446   -3.922785    0.966062
 O    8.948865   -1.302660    2.344310
 H   -3.569072    2.475200   -0.626295
 H   -3.549108    2.463744   -2.383719
 H   -5.306849    0.848398   -2.498508
 H   -6.088848    0.542264    0.284939
 H   -4.217249   -1.148773    0.749087
 H   -2.851076    1.510133    1.019561
 H   -3.991185    1.622378    3.279179
 H   -4.371910    3.443193    1.741675
 H   -5.607458    2.516491    0.846224
 H   -6.937729   -2.430736   -3.134604
 H   -7.538398   -3.093765   -1.607553
 H   -8.605234   -2.080021   -2.615804
 H   -5.187541   -1.661853   -1.408791
 H   -3.266085   -1.214771   -4.046013
 H   -6.941355    1.929008   -1.395451
 H   -3.132890   -0.689914    2.739863
 H   -6.218000    0.905655    3.099062
 H   -6.782478    3.593010    2.368276
 H    1.762667   -1.428018   -0.593380
 H    0.397121    1.022180    0.598475
 H   -0.511944   -0.500075   -1.872219
 H    0.221821    1.380026   -3.220287
 H    1.927744   -0.374052   -2.793475
 H    2.779485    1.568772   -4.100367
 H    3.207739    2.393542   -2.583603
 H   -1.183944   -0.582172    0.969037
 H   -0.023018    2.865621   -1.386214
 H    4.558363    0.489683   -2.190576
 H    5.859074   -1.524888    3.583727
 H    6.312350   -1.589907    0.563863
 H    4.631890    0.372432    2.212804
 H    3.764258   -1.747834    0.197810
 H    3.358237   -1.519748    3.227574
 H    2.391399   -3.777697    3.014571
 H    1.482991   -2.671097    1.951581
 H    9.840847    1.155327    2.845268
 H    8.821072    1.906741    1.590285
 H   10.132835    0.782272    1.149928
 H    6.917891    0.868513    1.297184
 H    7.792885   -2.533816    2.645087
 H    4.123278    0.987607   -0.042634
 H    3.626067   -4.262354    1.091012
