40 
4lkh_ligand_ani-2x.xyz
 C    0.007029    3.300871    0.750897
 C    0.546235    2.844637   -0.625225
 C    1.989586    2.402747   -0.527305
 C    2.197853    1.064004    0.170893
 C    1.174520    0.026684   -0.333441
 C   -0.245490    0.602375   -0.272401
 C   -1.343387   -0.347057   -0.830091
 C   -2.218477   -0.963398    0.268610
 C   -3.199791   -1.980696   -0.306707
 C    2.111116   -2.194367    0.176506
 C    1.851710   -3.488050    0.914901
 N    1.240525   -1.194091    0.448960
 O    0.509417    3.038691    1.814985
 O   -1.128421    3.998151    0.628302
 O    0.484791    3.896480   -1.530233
 O    3.521401    0.662543   -0.084401
 O   -0.280035    1.787648   -1.072974
 O   -2.242998    0.310722   -1.690167
 O   -1.410157   -1.615300    1.236788
 O   -3.845310   -2.577577    0.815116
 O    3.056872   -2.050327   -0.599303
 H    2.574760    3.178834   -0.028538
 H    2.360647    2.320012   -1.554316
 H    2.039990    1.194198    1.253027
 H    1.422522   -0.196192   -1.378909
 H   -0.484085    0.868988    0.764846
 H   -0.831478   -1.169606   -1.364732
 H   -2.784489   -0.151312    0.748534
 H   -3.916947   -1.484166   -0.970787
 H   -2.640155   -2.735964   -0.880902
 H    2.272510   -3.428500    1.924397
 H    2.342263   -4.302262    0.379189
 H    0.778913   -3.691476    1.005447
 H    0.446598   -1.392778    1.048185
 H   -1.412607    4.216530    1.531446
 H   -0.447166    4.090216   -1.698177
 H    3.540009   -0.290871   -0.296327
 H   -1.772158    1.057657   -2.086145
 H   -2.009383   -2.207443    1.718283
 H   -4.256936   -3.400855    0.531271
