88 
4lkj_ligand_xtb.xyz
 C   -4.031069   -0.301435    2.465184
 C   -3.057681   -0.586724    1.291220
 C   -3.046368   -2.055776    0.862857
 C   -4.351562   -2.434130    0.169138
 C   -4.625055   -1.426274   -0.964279
 C   -4.619011   -0.000096   -0.380850
 C   -4.936379    1.043791   -1.467633
 C   -4.497385    2.462968   -1.073339
 C   -3.049027    2.776702   -1.469558
 C   -7.085976   -1.691834   -1.054786
 C   -8.235073   -1.819025   -2.031940
 N   -5.867008   -1.718415   -1.654484
 O   -4.211597   -1.350772    3.251862
 O   -4.523156    0.773295    2.660970
 O   -4.210142   -3.741287   -0.334929
 O   -3.360844    0.269845    0.210078
 O   -4.388226    0.637731   -2.703295
 O   -5.378973    3.355798   -1.722852
 O   -2.684922    3.958856   -0.792119
 O   -7.237132   -1.610070    0.145787
 C    1.618378   -0.154327    0.318332
 C    0.465564   -0.678937    1.198735
 C   -0.797985    0.132129    0.902355
 C   -0.510317    1.637148    1.041844
 C    0.692542    2.014997    0.167143
 C    1.101615    3.484739    0.367650
 O    0.218590   -2.024247    0.903161
 O   -1.821854   -0.190068    1.834002
 O   -0.240507    1.974906    2.377994
 O    1.822565    1.231946    0.492890
 O    0.029780    4.365225    0.160975
 C    6.786994   -1.366918    0.058844
 C    6.241857    0.022607   -0.361427
 C    4.901600    0.271841    0.334293
 C    3.888385   -0.777291   -0.162791
 C    4.552331   -2.175322   -0.184497
 C    4.700854   -2.720868   -1.623785
 C    8.422354    1.157060   -0.478254
 C    9.135097    2.441210   -0.130882
 N    7.157725    1.088238   -0.014056
 O    7.455608   -1.991865   -0.993589
 O    4.513472    1.591222    0.055975
 O    2.751620   -0.850128    0.694632
 O    5.770580   -2.190893    0.535423
 O    5.423377   -3.910309   -1.654919
 O    8.947364    0.250131   -1.101684
 H   -2.211402   -2.218302    0.179744
 H   -2.889305   -2.684931    1.736920
 H   -5.181866   -2.388916    0.886888
 H   -3.818025   -1.499972   -1.698252
 H   -5.403196    0.073243    0.383866
 H   -6.034099    1.081731   -1.556944
 H   -4.582199    2.566215    0.016501
 H   -2.990515    2.928806   -2.557518
 H   -2.413317    1.929975   -1.196160
 H   -9.157867   -1.975141   -1.481353
 H   -8.321422   -0.901852   -2.611177
 H   -8.070558   -2.649481   -2.713876
 H   -5.834225   -1.613719   -2.656260
 H   -4.801477   -1.127178    3.992724
 H   -5.056752   -4.018667   -0.701376
 H   -4.567601    1.346513   -3.332383
 H   -5.085280    4.248598   -1.504505
 H   -1.737772    4.129782   -0.896237
 H    1.371169   -0.346083   -0.749152
 H    0.749070   -0.541205    2.250710
 H   -1.130126   -0.093778   -0.114462
 H   -1.404499    2.177928    0.698859
 H    0.414721    1.839935   -0.886145
 H    1.871134    3.743776   -0.363100
 H    1.516196    3.581296    1.374959
 H    1.018430   -2.527291    1.099705
 H   -0.879422    1.492118    2.919698
 H   -0.534635    4.349952    0.944031
 H    7.463585   -1.239366    0.921138
 H    6.083157    0.020706   -1.450604
 H    5.024487    0.126942    1.419837
 H    3.560925   -0.496929   -1.173801
 H    3.924217   -2.864051    0.389304
 H    3.705729   -2.941783   -2.018722
 H    5.175112   -1.960928   -2.261459
 H   10.172176    2.372510   -0.445381
 H    8.660568    3.275309   -0.643292
 H    9.090026    2.618687    0.940622
 H    6.715572    1.912285    0.365752
 H    8.176879   -1.383377   -1.263877
 H    3.581751    1.690173    0.316848
 H    6.313413   -3.707299   -1.326090
