88 
4lkj_ligand_ani-2x.xyz
 C   -3.982436   -0.218754    2.524009
 C   -3.060772   -0.564541    1.333693
 C   -3.100752   -2.039090    0.946682
 C   -4.386341   -2.418945    0.225615
 C   -4.677811   -1.407783   -0.899714
 C   -4.693194    0.006504   -0.305817
 C   -5.068353    1.095113   -1.317933
 C   -4.481393    2.468000   -1.001980
 C   -3.037361    2.649261   -1.450845
 C   -7.135845   -1.760645   -1.041011
 C   -8.285760   -1.898868   -2.017821
 N   -5.892720   -1.756313   -1.620633
 O   -4.018152   -1.186674    3.451950
 O   -4.596605    0.810794    2.628061
 O   -4.190049   -3.712307   -0.305110
 O   -3.403704    0.262955    0.258452
 O   -4.715752    0.715962   -2.641904
 O   -5.279265    3.396319   -1.719141
 O   -2.673646    3.960356   -1.061158
 O   -7.295534   -1.696186    0.167458
 C    1.600285   -0.226324    0.203497
 C    0.453292   -0.701815    1.100903
 C   -0.799405    0.116408    0.841482
 C   -0.482192    1.607764    0.971586
 C    0.663599    1.963809    0.034415
 C    1.084527    3.416210    0.168889
 O    0.154559   -2.057458    0.824457
 O   -1.794018   -0.184810    1.806888
 O   -0.097559    1.931493    2.287685
 O    1.810242    1.166822    0.334744
 O   -0.033785    4.274960   -0.056896
 C    6.779474   -1.439015    0.150771
 C    6.276459   -0.017458   -0.197467
 C    4.894698    0.208029    0.399991
 C    3.899054   -0.775029   -0.232834
 C    4.551651   -2.159056   -0.398164
 C    4.831032   -2.505964   -1.870701
 C    8.418175    1.185775   -0.280832
 C    9.158528    2.444748    0.106553
 N    7.183774    1.019400    0.261349
 O    7.566784   -1.972589   -0.878838
 O    4.548558    1.555273    0.166241
 O    2.754166   -0.905702    0.606024
 O    5.713211   -2.302251    0.416338
 O    5.495674   -3.733239   -2.001930
 O    8.926158    0.363024   -1.043524
 H   -2.255686   -2.248759    0.281429
 H   -2.970578   -2.661321    1.835658
 H   -5.234118   -2.409568    0.927806
 H   -3.852991   -1.453415   -1.613735
 H   -5.448119    0.048977    0.490216
 H   -6.160669    1.218755   -1.264053
 H   -4.546242    2.650965    0.081719
 H   -2.982594    2.538781   -2.544468
 H   -2.406850    1.879612   -0.999638
 H   -9.218895   -1.696069   -1.491269
 H   -8.187114   -1.210084   -2.864695
 H   -8.319676   -2.919084   -2.415936
 H   -5.857977   -1.578441   -2.614526
 H   -4.587329   -0.852098    4.164612
 H   -4.977159   -3.930554   -0.822660
 H   -5.088703    1.409844   -3.204673
 H   -4.806157    4.240105   -1.663658
 H   -1.707132    4.024650   -0.987210
 H    1.377276   -0.461686   -0.854382
 H    0.758472   -0.558939    2.145536
 H   -1.150603   -0.111414   -0.174392
 H   -1.380902    2.185004    0.696661
 H    0.356246    1.764855   -1.005947
 H    1.846857    3.652678   -0.581953
 H    1.517149    3.579621    1.161286
 H    0.953502   -2.562882    1.022222
 H   -0.780108    1.555109    2.863111
 H   -0.387785    4.516897    0.809757
 H    7.359437   -1.410832    1.086820
 H    6.200224    0.046004   -1.294258
 H    4.917216   -0.004193    1.481431
 H    3.594609   -0.388511   -1.217370
 H    3.871083   -2.913151    0.003802
 H    3.868702   -2.595058   -2.390080
 H    5.393455   -1.694188   -2.360761
 H   10.131911    2.162251    0.517084
 H    9.345828    3.032514   -0.797204
 H    8.624990    3.062852    0.833885
 H    6.727388    1.832741    0.657716
 H    8.214685   -1.272905   -1.121852
 H    3.599497    1.645075    0.363284
 H    6.381130   -3.590693   -1.631417
