88 
4lkj_ligand_aiqm1.xyz
 C   -4.090176   -0.421114    2.481586
 C   -3.052237   -0.595357    1.346297
 C   -2.968872   -2.034921    0.863540
 C   -4.281420   -2.430058    0.219766
 C   -4.551681   -1.458194   -0.935330
 C   -4.551653    0.000375   -0.444254
 C   -4.697770    0.990941   -1.600041
 C   -4.378523    2.440180   -1.250212
 C   -2.918376    2.816400   -1.422094
 C   -7.010506   -1.800188   -1.129296
 C   -8.124670   -2.053571   -2.116353
 N   -5.765962   -1.773291   -1.674882
 O   -4.009426   -1.411081    3.377635
 O   -4.848132    0.504381    2.568656
 O   -4.147197   -3.767364   -0.245520
 O   -3.334509    0.274167    0.273423
 O   -3.921336    0.532282   -2.708537
 O   -5.177054    3.223394   -2.143481
 O   -2.744110    4.062325   -0.765163
 O   -7.209932   -1.621189    0.061541
 C    1.575398   -0.061777    0.485988
 C    0.455943   -0.558152    1.397850
 C   -0.813216    0.200121    1.049053
 C   -0.565897    1.704644    1.186962
 C    0.626348    2.114899    0.333213
 C    1.024125    3.565009    0.539287
 O    0.218640   -1.931587    1.171962
 O   -1.865044   -0.146334    1.938207
 O   -0.279005    2.056617    2.532094
 O    1.783910    1.337550    0.648034
 O   -0.104474    4.415919    0.364082
 C    6.632333   -1.497780   -0.021732
 C    6.191255   -0.039297   -0.306220
 C    4.903663    0.249188    0.437742
 C    3.807690   -0.663839   -0.100640
 C    4.332102   -2.086125   -0.358685
 C    4.434925   -2.382152   -1.854617
 C    8.370992    1.028874   -0.619432
 C    9.214287    2.233984   -0.284482
 N    7.218474    0.912978    0.083209
 O    7.234086   -2.070593   -1.153328
 O    4.583667    1.621846    0.265503
 O    2.736260   -0.720655    0.850406
 O    5.551747   -2.298538    0.348108
 O    5.027445   -3.629249   -2.109714
 O    8.708994    0.205214   -1.465068
 H   -2.165537   -2.101210    0.127259
 H   -2.723218   -2.697088    1.691874
 H   -5.090229   -2.359667    0.952946
 H   -3.729290   -1.570299   -1.641276
 H   -5.403637    0.166437    0.223936
 H   -5.758679    0.970426   -1.871094
 H   -4.678924    2.631566   -0.216382
 H   -2.682303    2.909662   -2.489157
 H   -2.278638    2.035771   -1.009724
 H   -8.923567   -2.593255   -1.617002
 H   -8.523808   -1.097153   -2.454889
 H   -7.784605   -2.614100   -2.987151
 H   -5.684247   -1.867627   -2.671537
 H   -4.673535   -1.224110    4.054763
 H   -5.012338   -4.067549   -0.533431
 H   -4.136016    1.111755   -3.442413
 H   -4.981182    4.147146   -1.974050
 H   -1.803251    4.209051   -0.617115
 H    1.340130   -0.258213   -0.573722
 H    0.744770   -0.349740    2.429880
 H   -1.084599   -0.047681    0.022290
 H   -1.459076    2.239381    0.851894
 H    0.351778    1.949006   -0.721846
 H    1.762265    3.847967   -0.210032
 H    1.455780    3.672254    1.533941
 H    0.930072   -2.434336    1.571016
 H   -0.964888    1.659944    3.074696
 H   -0.478043    4.599758    1.229338
 H    7.316573   -1.514288    0.832035
 H    6.007828    0.052822   -1.382515
 H    5.044922    0.025928    1.502452
 H    3.441063   -0.250911   -1.043406
 H    3.644617   -2.806441    0.084353
 H    3.420340   -2.410329   -2.259595
 H    4.970746   -1.572142   -2.362673
 H   10.263635    1.956489   -0.335290
 H    9.035007    3.005175   -1.034207
 H    8.982049    2.638823    0.700151
 H    6.904143    1.716237    0.606198
 H    7.891603   -1.433421   -1.476506
 H    3.661114    1.725148    0.529762
 H    5.943833   -3.538461   -1.827456
