20 
4llj_ligand_aiqm1.xyz
 N    3.420800   14.224471   40.716430
 C    3.714662   13.846363   42.047489
 N    3.305285   14.659589   43.058049
 C    3.652656   14.176354   44.281265
 N    3.291111   14.921264   45.428218
 C    4.327153   12.980897   44.063420
 C    4.924849   12.027462   44.937506
 C    5.524514   10.929556   44.396539
 C    5.563876   10.719849   42.977140
 C    5.003211   11.609718   42.110266
 C    4.366666   12.770249   42.637772
 H    4.268800   14.332169   40.176571
 H    2.859144   13.520341   40.257215
 H    2.802465   15.520416   42.916906
 H    2.698627   14.376624   46.040178
 H    4.109808   15.185830   45.959101
 H    4.897871   12.181054   46.010511
 H    5.985453   10.191001   45.040702
 H    6.053200    9.830416   42.599861
 H    5.035847   11.446378   41.038861
