20 
4llk_ligand_ani-2x.xyz
 C    3.651638   14.032825   40.719731
 C    3.921968   13.457281   42.080719
 N    3.590497   14.268559   43.132353
 C    3.788053   13.859096   44.442782
 C    3.456396   14.671884   45.533055
 C    3.679162   14.202596   46.816254
 C    4.229004   12.932085   47.031507
 C    4.553604   12.136173   45.949107
 C    4.336561   12.591299   44.643520
 C    4.681348   11.745142   43.470259
 O    5.160664   10.635969   43.600155
 N    4.430846   12.278832   42.195330
 H    4.215477   14.959266   40.568521
 H    3.955339   13.297975   39.974832
 H    2.587404   14.258854   40.595713
 H    3.194656   15.182327   42.965196
 H    3.029068   15.659415   45.369451
 H    3.423136   14.830187   47.665840
 H    4.399083   12.574906   48.043022
 H    4.981696   11.145528   46.079453
