20 
4llk_ligand_aiqm1.xyz
 C    3.656452   14.036530   40.722765
 C    3.940344   13.482123   42.087048
 N    3.541100   14.252996   43.139631
 C    3.751017   13.845153   44.451097
 C    3.347966   14.624327   45.539465
 C    3.588192   14.158054   46.822954
 C    4.223625   12.927726   47.033032
 C    4.617794   12.165821   45.946564
 C    4.386157   12.615589   44.640678
 C    4.801886   11.812166   43.467243
 O    5.356241   10.738065   43.604024
 N    4.532142   12.336793   42.191041
 H    4.594269   14.146522   40.182480
 H    3.047750   13.324449   40.170007
 H    3.144873   14.998796   40.760198
 H    3.087180   15.131327   42.959103
 H    2.855900   15.576980   45.382519
 H    3.277884   14.757918   47.668522
 H    4.404027   12.577493   48.039577
 H    5.110801   11.211373   46.068852
