18 
4llp_ligand_aiqm1.xyz
 C    3.336976   13.843270   40.356188
 C    3.903894   13.330859   41.650575
 C    4.370381   12.020380   41.759755
 C    4.903894   11.509991   42.946997
 N    5.357243   10.203448   43.018025
 C    4.966265   12.353926   44.056518
 C    4.506363   13.661910   43.965099
 C    3.979535   14.151699   42.777689
 O    3.517086   15.445905   42.663678
 H    4.077599   13.771068   39.556650
 H    2.473746   13.247367   40.051578
 H    3.027179   14.881792   40.451522
 H    4.316363   11.373024   40.888507
 H    5.311308    9.602828   42.220449
 H    5.739706    9.840720   43.867163
 H    5.372422   11.994462   44.993022
 H    4.562199   14.306013   44.837492
 H    3.634641   15.880140   43.510791
