18 
4llx_ligand_ani-2x.xyz
 C    5.665557   11.124250   44.760141
 C    4.868366   12.231830   44.125465
 C    4.769876   12.347941   42.738128
 C    4.009302   13.406708   42.240022
 C    3.841804   13.617122   40.759226
 N    3.398985   14.275057   43.045039
 C    3.561409   14.068405   44.360920
 N    2.943340   14.947036   45.190211
 N    4.266428   13.089168   44.948246
 H    5.274592   10.142513   44.469516
 H    6.714479   11.164482   44.445123
 H    5.618798   11.215777   45.847103
 H    5.263878   11.644465   42.074681
 H    4.811022   13.776105   40.272942
 H    3.379252   12.742614   40.287661
 H    3.210197   14.489974   40.582465
 H    2.403259   15.697192   44.795367
 H    3.036857   14.831761   46.184345
