17 
4lm0_ligand_ani-2x.xyz
 C  125.857077  114.809929   30.178297
 C  125.146781  115.956362   29.900889
 C  124.071021  116.260048   30.756178
 C  123.715899  115.447716   31.850968
 C  124.452338  114.277766   32.121942
 C  125.499338  113.997592   31.275810
 N  123.186051  117.293975   30.761690
 N  122.292114  117.212984   31.769388
 C  122.593753  116.116481   32.430028
 N  126.293729  112.784006   31.524936
 O  125.979959  112.086835   32.474141
 O  127.218668  112.547164   30.767522
 H  126.697475  114.512898   29.563271
 H  125.405842  116.593666   29.062302
 H  124.229967  113.612814   32.946605
 H  123.141684  118.067647   30.118889
 H  122.017302  115.820116   33.297144
