17 
4lm0_ligand_xtb.xyz
 C  125.851514  114.809173   30.184403
 C  125.146094  115.951110   29.905917
 C  124.076977  116.261728   30.748407
 C  123.722725  115.437569   31.853071
 C  124.449242  114.282970   32.120738
 C  125.503764  113.991422   31.276547
 N  123.195929  117.286740   30.757868
 N  122.318514  117.185429   31.766616
 C  122.605079  116.100807   32.432385
 N  126.281216  112.805992   31.518360
 O  125.969735  112.110525   32.463074
 O  127.203029  112.568658   30.765317
 H  126.689487  114.508789   29.574709
 H  125.404428  116.583941   29.072031
 H  124.212898  113.631972   32.947754
 H  123.138046  118.067027   30.123565
 H  122.030322  115.814148   33.289238
