17 
4lm0_ligand_aiqm1.xyz
 C  125.860378  114.810458   30.174883
 C  125.148836  115.955024   29.900348
 C  124.073493  116.259069   30.754193
 C  123.718000  115.444602   31.850300
 C  124.452470  114.280508   32.118524
 C  125.500913  114.000810   31.271376
 N  123.192032  117.290646   30.758568
 N  122.295313  117.206192   31.772134
 C  122.593665  116.108501   32.435004
 N  126.288981  112.791041   31.524299
 O  125.966205  112.099503   32.478660
 O  127.216767  112.549997   30.767875
 H  126.699601  114.507462   29.567065
 H  125.407732  116.589977   29.064423
 H  124.240656  113.607907   32.938262
 H  123.134734  118.068634   30.128524
 H  122.009225  115.827669   33.295562
