19 
4lm1_ligand_xtb.xyz
 O    5.097090   10.365984   43.254460
 N    5.285029   11.238087   44.077157
 O    5.988344   11.114206   45.058201
 C    4.625543   12.507505   43.902082
 C    4.357094   13.228441   45.043454
 C    3.691919   14.455807   44.973614
 C    3.309818   14.957926   43.759602
 C    3.590223   14.254331   42.568844
 N    3.201916   14.815235   41.408586
 C    3.458014   14.196164   40.292316
 C    4.140057   12.968669   40.224375
 C    4.544935   12.368928   41.386794
 C    4.262898   12.996717   42.619859
 H    4.657684   12.821131   45.997517
 H    3.480676   14.994567   45.884038
 H    2.788008   15.897488   43.670535
 H    3.120822   14.689467   39.389813
 H    4.341271   12.514182   39.267217
 H    5.064459   11.423464   41.364437
