19 
4lm1_ligand_ani-2x.xyz
 O    5.229754   10.375145   43.223494
 N    5.294542   11.208004   44.112430
 O    5.862137   11.026125   45.175541
 C    4.630987   12.515173   43.913310
 C    4.376559   13.230576   45.053227
 C    3.700041   14.464038   44.973571
 C    3.308417   14.956705   43.760482
 C    3.585885   14.246055   42.563298
 N    3.170980   14.827034   41.399504
 C    3.437557   14.208737   40.279600
 C    4.128744   12.978907   40.204825
 C    4.543917   12.376040   41.361391
 C    4.269066   12.998015   42.613807
 H    4.694858   12.834813   46.010265
 H    3.496008   15.014807   45.887746
 H    2.784348   15.902431   43.663288
 H    3.098145   14.693582   39.363551
 H    4.321403   12.519089   39.239951
 H    5.072452   11.433025   41.343617
