19 
4lm1_ligand_aiqm1.xyz
 O    5.199467   10.367633   43.233610
 N    5.308543   11.219906   44.100735
 O    5.932027   11.070955   45.139611
 C    4.626002   12.521398   43.907753
 C    4.365371   13.222610   45.053683
 C    3.689887   14.461253   44.978637
 C    3.307017   14.960652   43.762188
 C    3.588338   14.253010   42.564737
 N    3.188002   14.839903   41.398891
 C    3.452884   14.210985   40.276783
 C    4.128095   12.969237   40.212800
 C    4.532107   12.363840   41.371800
 C    4.259860   13.002890   42.614546
 H    4.676903   12.810707   46.004460
 H    3.479946   15.005820   45.888495
 H    2.785911   15.904882   43.668311
 H    3.125602   14.695790   39.364359
 H    4.316150   12.511599   39.250989
 H    5.043687   11.415230   41.350512
