23 
4lm3_ligand_aiqm1.xyz
 C    5.043680   12.177527   44.999677
 C    4.799905   11.581980   43.771342
 C    4.944231   13.565450   45.147456
 C    4.447058   12.362270   42.671339
 C    4.573208   14.343502   44.046221
 C    4.316389   13.750297   42.815950
 O    4.216534   11.735029   41.483636
 C    4.204456   12.626813   40.372928
 O    3.959739   14.555284   41.767839
 C    3.356431   13.830026   40.701718
 C    5.229851   14.167643   46.481633
 C    5.125988   15.669699   46.635034
 O    5.539449   13.465321   47.423749
 H    5.321046   11.579082   45.855042
 H    4.876756   10.511107   43.637841
 H    4.477385   15.419784   44.114909
 H    3.792155   12.067289   39.536434
 H    5.226440   12.941471   40.142698
 H    2.350398   13.512392   40.992145
 H    3.299293   14.515245   39.859061
 H    4.116469   16.011345   46.402129
 H    5.372252   15.930772   47.661644
 H    5.811289   16.175171   45.953275
