23 
4lm3_ligand_ani-2x.xyz
 C    5.062178   12.190379   44.995122
 C    4.807260   11.589407   43.774049
 C    4.948416   13.577408   45.137547
 C    4.438900   12.362688   42.676514
 C    4.575201   14.348702   44.038341
 C    4.313768   13.752479   42.811605
 O    4.193176   11.729474   41.493191
 C    4.189160   12.604903   40.373125
 O    3.955167   14.548649   41.760624
 C    3.359795   13.830889   40.687944
 C    5.237753   14.171715   46.482251
 C    5.120688   15.670022   46.656306
 O    5.560046   13.458378   47.412493
 H    5.352686   11.600272   45.858321
 H    4.890078   10.515066   43.640820
 H    4.474883   15.428361   44.107124
 H    3.763819   12.036301   39.542965
 H    5.216952   12.903531   40.124406
 H    2.337180   13.531445   40.956179
 H    3.327077   14.520156   39.841015
 H    4.103731   16.010658   46.432106
 H    5.367135   15.917596   47.689909
 H    5.805351   16.196022   45.981745
