17 
4lm4_ligand_aiqm1.xyz
 C    4.706448   11.731971   46.623488
 C    4.034699   12.854703   47.129443
 C    4.845378   11.575326   45.258120
 C    3.507838   13.810359   46.275263
 C    3.245752   14.468250   42.801208
 C    4.315321   12.537530   44.386412
 C    3.641317   13.664383   44.888971
 C    4.465372   12.366937   42.939124
 N    3.096222   14.649483   44.062003
 N    3.886076   13.404133   42.218562
 O    5.022422   11.444079   42.376809
 H    5.113620   10.992450   47.300083
 H    3.925470   12.978018   48.199585
 H    5.356521   10.723548   44.831360
 H    2.987991   14.679960   46.654335
 H    2.846046   15.195742   42.106520
 H    3.955407   13.345129   41.214614
