17 
4lm4_ligand_ani-2x.xyz
 C    4.707022   11.731316   46.625489
 C    4.034040   12.855848   47.132739
 C    4.843307   11.578770   45.260790
 C    3.509270   13.806941   46.283701
 C    3.244821   14.470151   42.798640
 C    4.314910   12.537239   44.390225
 C    3.641200   13.663594   44.890376
 C    4.465785   12.364408   42.938906
 N    3.096890   14.647955   44.059161
 N    3.884356   13.407243   42.214749
 O    5.020620   11.447894   42.363505
 H    5.115190   10.990327   47.306842
 H    3.926016   12.977142   48.208222
 H    5.356431   10.723971   44.827564
 H    2.986631   14.681486   46.660657
 H    2.844058   15.201082   42.097566
 H    3.961352   13.336633   41.206770
