32 
4lmu_ligand_ani-2x.xyz
 C  169.688171 -122.655517    0.509499
 C  169.700998 -122.829887   -0.867356
 C  169.396074 -121.745993   -1.731172
 C  169.076664 -120.515467   -1.150978
 C  169.054707 -120.323468    0.222897
 C  169.366802 -121.406934    1.042025
 C  169.404182 -121.883879   -3.175137
 C  169.106871 -120.672245   -3.925981
 C  168.835753 -119.496085   -3.287888
 C  168.542284 -118.224763   -3.935851
 C  169.068829 -117.911322   -5.163650
 C  168.826969 -116.670743   -5.789697
 C  168.028927 -115.734160   -5.201677
 C  167.401947 -115.960399   -3.897878
 C  167.686013 -117.253633   -3.181619
 O  168.752808 -119.442013   -1.916367
 O  169.646979 -122.942306   -3.784293
 O  166.678957 -115.080122   -3.445196
 O  167.749591 -114.547795   -5.760134
 O  169.094849 -120.795307   -5.270664
 O  169.372047 -121.305370    2.393461
 O  170.007017 -124.035338   -1.347125
 H  169.924781 -123.484597    1.164612
 H  168.798575 -119.347133    0.620598
 H  169.700379 -118.625262   -5.678142
 H  169.266429 -116.454510   -6.758242
 H  168.151473 -117.015813   -2.213402
 H  166.722929 -117.715688   -2.920914
 H  167.155438 -114.112635   -5.115301
 H  169.297285 -121.728963   -5.452745
 H  169.135452 -120.403558    2.643569
 H  169.963923 -123.989996   -2.326349
