10 
4lpf_ligand_aiqm1.xyz
 N    9.949075   19.074337   21.761368
 N   10.348828   18.018766   22.522754
 C   11.220990   18.594769   23.335484
 N   11.405836   19.931490   23.138501
 C   10.580428   20.190190   22.140311
 N   11.856266   17.917955   24.357722
 H    9.259530   18.943587   21.044040
 H   10.420611   21.149066   21.678720
 H   12.718565   18.360229   24.630732
 H   11.972870   16.934609   24.172367
