34 
4lrr_ligand_aiqm1.xyz
 O    6.809972   12.346928  -39.750424
 N    6.883865   13.437770  -40.289911
 O    7.886443   14.129357  -40.349669
 C    5.659561   13.965703  -40.921695
 C    4.499253   13.208075  -40.854518
 C    3.343539   13.707843  -41.439265
 C    5.720380   15.191478  -41.567400
 C    4.562116   15.678545  -42.157539
 C    3.367983   14.950977  -42.078800
 C    2.177252   15.546994  -42.767729
 O    2.274669   16.241639  -43.737684
 O    0.931306   15.269656  -42.281854
 C    0.736801   15.075163  -40.923670
 C    1.224578   16.020304  -39.967261
 C    1.959103   17.223048  -40.149235
 C    2.317204   17.986234  -39.050966
 C    1.988427   17.627248  -37.713921
 C    1.271611   16.468129  -37.537647
 C   -0.012671   13.991890  -40.526544
 C   -0.326577   13.722254  -39.153159
 C    0.165220   14.600752  -38.238628
 C    0.913182   15.712164  -38.649859
 O    0.041131   14.604753  -36.870628
 C    0.704793   15.742808  -36.366423
 O    0.736990   15.975465  -35.199758
 H    4.517316   12.252922  -40.351444
 H    2.437721   13.120655  -41.412116
 H    6.654920   15.731272  -41.606569
 H    4.562928   16.616242  -42.695630
 H    2.219959   17.563029  -41.143961
 H    2.865085   18.904237  -39.210597
 H    2.286665   18.251400  -36.883178
 H   -0.385410   13.322491  -41.289888
 H   -0.918914   12.862570  -38.886132
