34 
4lrr_ligand_ani-2x.xyz
 O    6.783236   12.267436  -39.703762
 N    6.869686   13.354643  -40.249123
 O    7.887709   14.023565  -40.304115
 C    5.662839   13.896473  -40.884366
 C    4.489224   13.154792  -40.838011
 C    3.348871   13.675360  -41.426289
 C    5.736114   15.129543  -41.520835
 C    4.593870   15.628793  -42.122154
 C    3.388370   14.921968  -42.061514
 C    2.218197   15.531231  -42.768559
 O    2.316075   16.233041  -43.738540
 O    0.954741   15.260371  -42.301782
 C    0.711712   15.122788  -40.946800
 C    1.163967   16.099580  -40.000507
 C    1.818403   17.353731  -40.172179
 C    2.193282   18.106512  -39.068218
 C    1.940371   17.687678  -37.741050
 C    1.290488   16.494500  -37.569522
 C   -0.010725   14.019508  -40.541272
 C   -0.260562   13.721362  -39.181656
 C    0.234067   14.599204  -38.259672
 C    0.917750   15.746365  -38.683216
 O    0.161984   14.571856  -36.890023
 C    0.804741   15.723095  -36.391049
 O    0.880996   15.934204  -35.218297
 H    4.478031   12.192225  -40.342046
 H    2.432752   13.095772  -41.401957
 H    6.675330   15.669632  -41.544284
 H    4.624538   16.574418  -42.653525
 H    2.005563   17.737961  -41.170102
 H    2.698050   19.056197  -39.225283
 H    2.244728   18.295509  -36.893311
 H   -0.364184   13.338295  -41.311254
 H   -0.813813   12.832393  -38.899426
