90 
4lte_ligand_xtb.xyz
 C   -2.544466    1.932668   -0.593061
 C   -1.118119    1.579239   -0.240039
 O   -0.156971    2.147427   -0.740677
 C   -2.950960    3.260631    0.061367
 C   -2.945441    3.225059    1.594736
 C   -4.035882    2.326515    2.189573
 C   -3.088099    4.635726    2.178708
 C   -5.438388    2.899528    2.000166
 C   -4.486445    5.214814    1.983735
 C   -5.533348    4.296075    2.604637
 C    0.475361   -4.723419   -0.223710
 C    0.591123   -5.997013   -0.971442
 C   -0.130974   -7.028849   -3.094427
 C   -0.088658   -2.383569   -0.114658
 C   -0.047167   -3.575424   -0.814492
 C   -2.760297   -6.257671   -2.680040
 C   -2.412597   -6.960115   -3.823436
 O    1.526470   -6.762651   -0.791082
 O    0.058783    2.183000    2.550438
 C   -1.795263   -5.923442   -1.748446
 C   -0.470099   -6.303941   -1.953412
 N   -0.967159    0.553492    0.622452
 C   -1.097227   -7.344682   -4.029903
 C    0.385973   -2.301924    1.189853
 C    0.908872   -3.452776    1.775145
 C    0.962111   -4.643510    1.081229
 C    0.363738   -1.023443    1.987468
 C    0.353342    0.246304    1.142855
 C    0.841645    1.481032    1.937529
 N    3.344434    0.567874   -1.767031
 C    3.016135    1.921026   -1.354037
 C    4.173619    2.561028   -0.568620
 C    3.843246    3.921867    0.044273
 C    2.668575    3.967155    1.027147
 C    2.742214    2.971087    2.197374
 N    2.158025    1.696284    1.844886
 C    2.724903    2.710030   -2.632849
 O    3.436915    2.611961   -3.611753
 N    1.652074    3.513232   -2.552554
 C    3.442631   -0.458854   -0.911135
 O    3.377091   -0.316745    0.307015
 C    3.503585   -1.804876   -1.522301
 C    3.595796   -2.880554   -0.742020
 C    3.369148   -4.257656   -1.231056
 O    3.611942   -5.159325   -0.289732
 O    2.940020   -4.523452   -2.328783
 H   -2.598458    2.050989   -1.677717
 H   -3.221933    1.131464   -0.298087
 H   -2.244128    4.026362   -0.266384
 H   -3.937624    3.536631   -0.311625
 H   -1.970530    2.844041    1.916245
 H   -3.992800    1.325573    1.753327
 H   -3.842040    2.222540    3.259743
 H   -2.345119    5.294904    1.725296
 H   -2.873364    4.587130    3.248358
 H   -6.167441    2.239120    2.476201
 H   -5.684180    2.945109    0.937243
 H   -4.538928    6.202128    2.448035
 H   -4.694803    5.341106    0.919616
 H   -5.363723    4.233990    3.682229
 H   -6.533954    4.704693    2.446099
 H    0.899120   -7.318125   -3.236490
 H   -0.495432   -1.509179   -0.598797
 H   -0.391658   -3.609392   -1.837222
 H   -3.788295   -5.969941   -2.515221
 H   -3.169776   -7.211927   -4.551320
 H   -2.069453   -5.390164   -0.849642
 H   -1.755318    0.275171    1.186389
 H   -0.827788   -7.894992   -4.918899
 H    1.288378   -3.407975    2.785548
 H    1.377208   -5.527985    1.541198
 H    1.254162   -0.999174    2.619371
 H   -0.505079   -1.020606    2.654293
 H    1.017618    0.109643    0.285044
 H    3.546591    0.452269   -2.751066
 H    2.117888    1.886163   -0.732965
 H    4.476965    1.866314    0.215263
 H    5.018247    2.681347   -1.251784
 H    4.740474    4.269315    0.562782
 H    3.635320    4.631284   -0.759797
 H    2.630539    4.977620    1.438359
 H    1.726362    3.798036    0.504319
 H    2.163458    3.366400    3.035990
 H    3.774600    2.815519    2.515163
 H    2.721230    1.034788    1.314565
 H    0.951433    3.347246   -1.842771
 H    1.377011    4.015274   -3.382481
 H    3.365286   -1.899078   -2.589409
 H    3.743545   -2.772397    0.323002
 H    3.186478   -6.019997   -0.516691
