90 
4lte_ligand_ani-2x.xyz
 C   -3.067853    1.667614   -0.066469
 C   -1.596079    1.334928    0.084418
 O   -0.729361    1.972555   -0.503103
 C   -3.329524    3.173635    0.053113
 C   -2.787972    3.822357    1.336637
 C   -3.342965    3.217053    2.635926
 C   -3.041953    5.339758    1.337583
 C   -4.820585    3.551550    2.867869
 C   -4.515322    5.697418    1.568412
 C   -5.045764    5.065876    2.858521
 C    0.587649   -4.762232   -0.367195
 C    0.757189   -6.027340   -1.158299
 C    0.340154   -7.256877   -3.258021
 C    0.087746   -2.400037   -0.174567
 C    0.198821   -3.552005   -0.942852
 C   -2.209452   -6.185705   -3.554088
 C   -1.712024   -7.071395   -4.506936
 O    1.645395   -6.811428   -0.859061
 O   -0.258706    2.011856    2.820839
 C   -1.429525   -5.823813   -2.460544
 C   -0.139599   -6.344135   -2.314745
 N   -1.281402    0.279376    0.895140
 C   -0.435675   -7.608805   -4.355034
 C    0.381327   -2.417980    1.192289
 C    0.793663   -3.629988    1.757170
 C    0.911992   -4.780055    0.993259
 C    0.303004   -1.190101    2.085377
 C    0.087988    0.122110    1.333407
 C    0.523898    1.344408    2.162739
 N    3.147371    0.305379   -1.626450
 C    2.679616    1.631404   -1.264914
 C    3.775082    2.433552   -0.534583
 C    3.347727    3.810840   -0.018322
 C    2.180345    3.860492    0.978772
 C    2.319551    2.988969    2.240302
 N    1.853444    1.622232    2.057173
 C    2.289877    2.316410   -2.580571
 O    3.026009    2.240243   -3.552126
 N    1.122036    3.010044   -2.568456
 C    3.228733   -0.710565   -0.735865
 O    3.033468   -0.535324    0.471690
 C    3.541354   -2.057435   -1.279325
 C    3.644360   -3.107532   -0.463525
 C    3.916527   -4.456960   -1.024021
 O    4.047777   -5.376729   -0.059652
 O    4.010683   -4.699426   -2.205873
 H   -3.393981    1.320170   -1.055758
 H   -3.655508    1.107942    0.668863
 H   -2.851443    3.669479   -0.800081
 H   -4.407424    3.351382   -0.046323
 H   -1.702335    3.659257    1.338589
 H   -3.171081    2.133868    2.660352
 H   -2.754537    3.626876    3.469597
 H   -2.682953    5.773759    0.395346
 H   -2.440093    5.791864    2.139667
 H   -5.157342    3.121898    3.818993
 H   -5.434175    3.084076    2.084746
 H   -4.634634    6.787313    1.600992
 H   -5.117068    5.350338    0.716868
 H   -4.519210    5.509876    3.716167
 H   -6.109564    5.299028    2.990872
 H    1.330599   -7.675726   -3.109562
 H   -0.252179   -1.486811   -0.656252
 H   -0.017414   -3.504312   -2.008499
 H   -3.206806   -5.769055   -3.662886
 H   -2.321149   -7.348217   -5.363254
 H   -1.828156   -5.139655   -1.714716
 H   -1.985434   -0.030990    1.548944
 H   -0.047403   -8.308765   -5.091176
 H    1.044643   -3.672526    2.817249
 H    1.265055   -5.705018    1.439825
 H    1.239928   -1.122971    2.653394
 H   -0.486433   -1.309153    2.841678
 H    0.708221    0.107125    0.435043
 H    3.417263    0.182952   -2.593170
 H    1.801298    1.526088   -0.619097
 H    4.146556    1.813113    0.288672
 H    4.611438    2.554577   -1.234662
 H    4.228106    4.270777    0.449844
 H    3.093692    4.452651   -0.872154
 H    2.070489    4.905618    1.297971
 H    1.237628    3.604790    0.472358
 H    1.708662    3.410180    3.042169
 H    3.357790    2.960597    2.592343
 H    2.414121    0.971977    1.510957
 H    0.413991    2.806958   -1.870562
 H    0.800678    3.354838   -3.462780
 H    3.667323   -2.201060   -2.351712
 H    3.529110   -3.001359    0.612888
 H    4.051007   -6.247547   -0.492578
