35 
4luo_ligand_aiqm1.xyz
 C    5.123977  -12.914957  -24.096689
 N    4.619264  -12.337918  -22.961992
 N    3.724844  -13.116315  -22.343628
 C    3.623575  -14.201726  -23.104916
 C    4.475534  -14.126525  -24.225692
 C    6.190401  -12.341145  -24.934735
 C    4.879508  -11.035561  -22.442135
 C    6.071411  -12.381480  -26.327545
 C    7.078237  -11.857572  -27.133441
 C    8.215951  -11.299584  -26.555812
 C    8.346533  -11.271806  -25.168899
 C    7.341622  -11.792173  -24.358451
 C    4.997221  -10.881706  -21.065035
 C    5.255271   -9.612258  -20.557636
 C    5.394953   -8.522755  -21.413791
 C    5.256560   -8.678779  -22.797001
 C    4.979749   -9.947754  -23.303558
 C    5.402476   -7.500671  -23.724162
 C    2.707611  -15.308773  -22.718572
 O    2.367408  -16.130316  -23.748305
 O    2.288791  -15.504245  -21.616936
 H    4.647568  -14.869825  -24.984806
 H    5.187492  -12.820796  -26.772493
 H    6.972705  -11.888658  -28.209259
 H    8.997697  -10.892311  -27.181868
 H    9.231742  -10.844702  -24.717652
 H    7.437772  -11.771022  -23.281365
 H    4.857299  -11.739937  -20.424617
 H    5.346022   -9.472793  -19.489281
 H    5.603970   -7.541868  -21.004296
 H    4.857054  -10.092139  -24.370344
 H    4.674813   -6.724234  -23.485001
 H    6.395568   -7.058623  -23.631112
 H    5.257740   -7.798549  -24.762812
 H    2.739757  -15.782025  -24.563862
