35 
4luo_ligand_dft.xyz
 C   -0.751167    0.826831   -0.050746
 N   -0.684702   -0.541719   -0.060804
 N   -1.891677   -1.119765   -0.003039
 C   -2.754121   -0.112705    0.061088
 C   -2.092165    1.134599    0.044014
 C    0.400626    1.733911   -0.193127
 C    0.471649   -1.377623   -0.082444
 C    0.499434    2.849877    0.642389
 C    1.558196    3.741591    0.504437
 C    2.530521    3.523911   -0.466979
 C    2.436696    2.414638   -1.304670
 C    1.377246    1.525725   -1.173325
 C    0.481366   -2.482447   -0.924364
 C    1.608985   -3.296811   -0.941908
 C    2.705139   -3.000382   -0.140220
 C    2.692740   -1.892090    0.712021
 C    1.556551   -1.087030    0.740517
 C    3.880666   -1.584152    1.588293
 C   -4.215778   -0.395774    0.117610
 O   -4.959753    0.602998    0.651475
 O   -4.732852   -1.401233   -0.282580
 H   -2.513639    2.129648    0.003576
 H   -0.252102    3.008264    1.410548
 H    1.625780    4.603543    1.161130
 H    3.359218    4.217330   -0.573104
 H    3.188870    2.243767   -2.068634
 H    1.303586    0.666158   -1.832341
 H   -0.386382   -2.697019   -1.537647
 H    1.631137   -4.166187   -1.591501
 H    3.583129   -3.640732   -0.168861
 H    1.513934   -0.229308    1.404263
 H    4.090601   -2.413380    2.272652
 H    4.780804   -1.421651    0.985304
 H    3.712782   -0.685772    2.188649
 H   -4.381746    1.269190    1.046202
