35 
4luo_ligand_ani-2x.xyz
 C    5.141554  -12.879824  -24.125699
 N    4.679058  -12.326207  -22.953996
 N    3.863399  -13.163391  -22.293337
 C    3.737312  -14.227006  -23.073670
 C    4.506552  -14.096630  -24.246023
 C    6.210166  -12.326888  -24.977041
 C    4.852507  -11.010226  -22.443404
 C    6.029924  -12.344826  -26.359010
 C    7.012755  -11.852539  -27.209253
 C    8.204053  -11.359693  -26.684120
 C    8.405735  -11.364926  -25.306432
 C    7.419729  -11.850305  -24.457101
 C    4.736034  -10.835365  -21.065733
 C    4.911648   -9.567681  -20.530330
 C    5.177184   -8.482330  -21.358898
 C    5.264319   -8.648732  -22.742586
 C    5.089696   -9.921756  -23.279552
 C    5.549480   -7.475350  -23.647614
 C    2.888350  -15.375451  -22.620182
 O    2.425823  -16.168066  -23.613755
 O    2.632565  -15.604579  -21.473018
 H    4.663988  -14.812049  -25.041821
 H    5.098939  -12.736039  -26.763022
 H    6.850028  -11.858838  -28.283552
 H    8.975939  -10.976829  -27.346729
 H    9.336215  -10.989027  -24.890494
 H    7.567331  -11.844975  -23.380754
 H    4.504384  -11.694240  -20.443736
 H    4.833773   -9.424897  -19.455103
 H    5.314173   -7.492303  -20.929671
 H    5.152335  -10.067876  -24.353951
 H    4.743515   -6.733056  -23.606255
 H    6.476289   -6.965844  -23.359092
 H    5.655346   -7.799978  -24.686910
 H    2.638002  -15.783780  -24.475853
