21 
4lv4_ligand_xtb.xyz
 O   11.091662  160.098082   20.687614
 C   11.749481  159.452418   21.458114
 O   11.686133  159.589637   22.779659
 C   12.733806  158.401320   21.029093
 N   13.358692  157.801663   22.015129
 C   14.257375  156.848055   21.735627
 C   14.556779  156.463542   20.398447
 C   15.510603  155.454797   20.164934
 C   16.141025  154.852915   21.218434
 C   15.854070  155.223535   22.538948
 C   14.930264  156.203139   22.813229
 O   14.617653  156.596980   24.066654
 C   13.864749  157.130730   19.363687
 C   12.951265  158.101309   19.671746
 H   12.316801  158.952326   23.179291
 H   15.732148  155.168818   19.147913
 H   16.873105  154.078919   21.044204
 H   16.368001  154.730501   23.353426
 H   15.131665  156.094746   24.711703
 H   14.070078  156.861178   18.337396
 H   12.395044  158.641989   18.923052
