39 
4lxz_ligand_xtb.xyz
 O   19.828968  -18.397976   -2.134347
 O   20.607277  -18.288007    0.369252
 N   21.107111  -18.804476   -1.733806
 C   21.439363  -18.664438   -0.436538
 C   22.872899  -19.015343   -0.118303
 C   23.779612  -17.804951   -0.369409
 C   25.231138  -18.106444   -0.005354
 C   26.141974  -16.912186   -0.277972
 C   27.591272  -17.203475    0.105257
 C   28.512546  -16.022913   -0.219653
 C   28.089801  -14.761911    0.520978
 O   27.582178  -13.814841   -0.034869
 N   28.340441  -14.836946    1.858927
 C   28.068499  -13.904917    2.866588
 C   27.452149  -12.682279    2.619673
 C   27.214722  -11.810991    3.667250
 C   27.582588  -12.139657    4.960736
 C   28.195517  -13.356762    5.207755
 C   28.437522  -14.235014    4.169510
 H   19.413285  -18.137157   -1.285425
 H   21.724876  -18.965535   -2.510313
 H   23.197218  -19.860660   -0.727426
 H   22.924070  -19.295555    0.934224
 H   23.423067  -16.963206    0.226943
 H   23.723521  -17.514441   -1.421211
 H   25.579086  -18.966707   -0.583064
 H   25.288649  -18.373387    1.052278
 H   25.784719  -16.047134    0.284015
 H   26.096638  -16.653545   -1.337728
 H   27.941473  -18.082952   -0.440638
 H   27.640590  -17.438028    1.171972
 H   28.464621  -15.807336   -1.287603
 H   29.544357  -16.271298    0.039196
 H   28.785521  -15.682716    2.188376
 H   27.166411  -12.423603    1.614297
 H   26.736191  -10.864022    3.466886
 H   27.393792  -11.453379    5.772269
 H   28.486903  -13.624588    6.212689
 H   28.916635  -15.185126    4.365786
