51 
4lys_ligand_xtb.xyz
 O    2.360924    3.231754   -0.738010
 C    1.820594    2.233117   -1.161204
 C    1.223888    2.118499   -2.550310
 N    1.681659    1.100460   -0.437308
 C    2.127055    0.970719    0.944252
 C    2.038880   -0.489874    1.336144
 C    3.200363   -1.160143    1.489705
 C    1.380319    1.934386    1.888652
 C   -0.047023    1.521097    2.269696
 C   -0.767965    0.912255    1.106276
 C   -1.766563    1.577859    0.415610
 C   -2.385179    0.976334   -0.670691
 C   -1.995896   -0.311974   -1.091710
 C   -0.998654   -0.990997   -0.384559
 O   -0.489035   -2.220516   -0.663163
 C   -1.106935   -3.093660   -1.585195
 O   -2.627889   -0.913653   -2.165577
 C   -2.430183   -0.296189   -3.422026
 O   -3.376463    1.559992   -1.401397
 C   -3.851230    2.824973   -1.007898
 C   -0.390853   -0.361754    0.714288
 C    0.698940   -1.059173    1.447363
 C    0.373672   -2.099468    2.227409
 C    1.337713   -2.899212    3.044041
 C    2.259812   -3.493069    2.002416
 C    3.450347   -2.583093    1.708122
 O    4.573324   -3.041185    1.683530
 O    2.071152   -4.533790    1.437036
 H    0.158825    1.907243   -2.475189
 H    1.705597    1.312731   -3.099504
 H    1.370732    3.053353   -3.082824
 H    1.206868    0.311895   -0.844715
 H    3.178211    1.289240    0.961805
 H    4.126436   -0.606028    1.386562
 H    1.364518    2.900708    1.383973
 H    1.972621    2.045422    2.798319
 H   -0.581962    2.398220    2.634941
 H   -0.007458    0.787548    3.078866
 H   -2.055634    2.564470    0.737417
 H   -0.618866   -4.055186   -1.425314
 H   -2.177772   -3.183268   -1.399116
 H   -0.944711   -2.773827   -2.617308
 H   -2.966718   -0.914237   -4.139545
 H   -1.365705   -0.271677   -3.686598
 H   -2.831520    0.718630   -3.443906
 H   -3.068484    3.587434   -1.074247
 H   -4.256127    2.802716    0.008086
 H   -4.649434    3.066659   -1.708002
 H   -0.658146   -2.416948    2.251278
 H    1.912130   -2.259552    3.719060
 H    0.821524   -3.679036    3.600568
