54 
4lzr_ligand_xtb.xyz
 O   -1.474855    3.822409   -0.638301
 C   -1.340575    2.731937   -1.152176
 C   -2.308411    2.166095   -2.174782
 N   -0.328764    1.885088   -0.869454
 C    0.732947    2.141644    0.094498
 C    1.670558    0.949177    0.146890
 C    2.976542    1.197824   -0.143198
 C    0.193664    2.503871    1.493073
 C   -0.241499    1.296143    2.329403
 C   -1.048820    0.347797    1.497844
 C   -2.422962    0.247932    1.633505
 C   -3.147185   -0.616455    0.827572
 C   -2.491995   -1.385584   -0.155251
 C   -1.103927   -1.293574   -0.284903
 O   -0.334468   -1.934267   -1.210766
 C   -0.828864   -3.021043   -1.963267
 O   -3.217401   -2.260141   -0.947847
 C   -4.139134   -1.666493   -1.839834
 O   -4.498035   -0.781847    0.904342
 C   -5.210520   -0.062669    1.881636
 C   -0.384902   -0.422319    0.554083
 C    1.092002   -0.324307    0.432633
 C    1.789189   -1.481017    0.673376
 C    3.166554   -1.709301    0.762680
 C    4.236856   -0.914129    0.436828
 C    4.157463    0.370834   -0.277689
 O    5.100557    0.781613   -0.952436
 O    5.426004   -1.471222    0.742488
 C    6.644586   -0.766459    0.597972
 H   -1.782309    1.894052   -3.086874
 H   -3.065802    2.909992   -2.403299
 H   -2.786861    1.279342   -1.763167
 H   -0.280684    1.009434   -1.363901
 H    1.281835    3.024662   -0.260510
 H    3.215509    2.215988   -0.433708
 H    0.975040    3.044373    2.029619
 H   -0.645913    3.182868    1.347249
 H    0.644304    0.778456    2.706319
 H   -0.821482    1.646036    3.183991
 H   -2.916965    0.849810    2.378058
 H   -1.339467   -3.750058   -1.333010
 H    0.054749   -3.474702   -2.413563
 H   -1.506216   -2.692570   -2.755300
 H   -4.897941   -1.084545   -1.313845
 H   -3.627092   -1.023325   -2.566795
 H   -4.614940   -2.493967   -2.363148
 H   -6.249455   -0.368732    1.768522
 H   -4.868492   -0.311030    2.890726
 H   -5.131531    1.017534    1.723106
 H    1.179429   -2.344242    0.907725
 H    3.454195   -2.681048    1.147296
 H    7.396601   -1.414165    1.047967
 H    6.882534   -0.583304   -0.450305
 H    6.617938    0.189448    1.125702
