54 
4lzr_ligand_dft.xyz
 O   -0.888770    4.162553   -1.003742
 C   -1.154254    3.013733   -1.326487
 C   -2.244991    2.676277   -2.327963
 N   -0.475435    1.940566   -0.841523
 C    0.596490    2.098210    0.134719
 C    1.548965    0.900142    0.104705
 C    2.837951    1.195456   -0.229750
 C    0.084277    2.414782    1.560210
 C   -0.338131    1.194089    2.395917
 C   -1.132476    0.209208    1.579127
 C   -2.515126    0.118230    1.716520
 C   -3.258313   -0.711001    0.877653
 C   -2.599807   -1.467321   -0.103298
 C   -1.210242   -1.392174   -0.225807
 O   -0.576410   -2.042449   -1.245315
 C   -0.628305   -3.463304   -1.217334
 O   -3.324974   -2.263533   -0.946747
 C   -3.758129   -1.583520   -2.115764
 O   -4.604766   -0.834976    0.901409
 C   -5.322927   -0.052962    1.831022
 C   -0.460101   -0.553231    0.616334
 C    1.017630   -0.406126    0.426646
 C    1.771484   -1.534353    0.603527
 C    3.171046   -1.752434    0.550384
 C    4.195471   -0.935957    0.162363
 C    4.049481    0.408363   -0.436670
 O    4.979288    0.902957   -1.072148
 O    5.414184   -1.498503    0.230848
 C    6.587743   -0.707813    0.419902
 H   -1.827991    2.706673   -3.339928
 H   -3.028314    3.432655   -2.260394
 H   -2.677789    1.684344   -2.161156
 H   -0.786077    1.014335   -1.086270
 H    1.145873    2.983939   -0.190821
 H    3.039932    2.229050   -0.501097
 H    0.878211    2.948876    2.094995
 H   -0.748332    3.115420    1.447978
 H    0.556130    0.698236    2.790979
 H   -0.919226    1.531628    3.260259
 H   -3.005291    0.722989    2.471445
 H   -0.229477   -3.847815   -0.270030
 H    0.008326   -3.800972   -2.036539
 H   -1.648875   -3.827861   -1.356066
 H   -4.414312   -0.743969   -1.856591
 H   -2.899669   -1.221494   -2.695322
 H   -4.317735   -2.308700   -2.709197
 H   -6.375116   -0.288025    1.668677
 H   -5.050871   -0.304657    2.863641
 H   -5.160412    1.019336    1.664016
 H    1.209072   -2.418639    0.892230
 H    3.498645   -2.740999    0.862795
 H    7.336196   -1.409883    0.791457
 H    6.910494   -0.249448   -0.513066
 H    6.419831    0.072851    1.168495
