31 
4lzs_ligand_xtb.xyz
 C   12.767581   38.500007   77.614744
 C   11.768987   37.623362   77.088982
 C   10.570858   37.984439   77.677028
 C   12.119529   39.370721   78.495040
 C   14.208918   38.600491   77.387267
 C    9.242047   37.392665   77.499215
 C   12.660756   40.491207   79.297708
 C   14.885937   37.561175   76.527216
 C   11.728500   37.132072   74.655883
 C   11.881428   36.546334   76.062412
 N   10.818022   39.034118   78.536381
 N    8.373570   37.627387   78.529673
 O   14.861272   39.495290   77.893899
 O    8.911110   36.764502   76.510315
 C    7.043732   37.067857   78.531690
 H   13.061310   41.262149   78.641183
 H   11.888189   40.920875   79.933353
 H   13.491416   40.146394   79.910840
 H   15.944897   37.800657   76.460169
 H   14.771636   36.577005   76.976070
 H   14.456141   37.547148   75.530329
 H   11.883061   36.358591   73.907689
 H   10.723795   37.529203   74.540876
 H   12.440932   37.936465   74.483399
 H   11.068959   35.835724   76.218487
 H   12.826576   36.014264   76.150632
 H   10.113471   39.557389   79.031657
 H    8.729747   37.946030   79.415912
 H    6.311607   37.837278   78.782154
 H    6.850414   36.692783   77.528068
 H    6.956603   36.243417   79.243728
