35 
4m0e_ligand_xtb.xyz
 C   -4.658016   -0.681879    1.581726
 C   -3.852226   -0.247842    0.394087
 C   -4.484011    0.117606   -0.766662
 C   -3.755265    0.505176   -1.897875
 C   -2.390106    0.545897   -1.868199
 C   -1.685994    0.203775   -0.693576
 C   -2.431802   -0.217837    0.450403
 C   -1.737106   -0.594183    1.618831
 C   -0.372092   -0.599309    1.661749
 C    0.372228   -0.198839    0.540667
 C   -0.263452    0.232932   -0.622229
 C    0.563393    0.769880   -1.729797
 O    0.159031    1.566816   -2.547335
 C    2.054605    0.374034   -1.783601
 O    2.672369    0.446701   -2.828487
 C    2.601447   -0.003144   -0.513326
 C    1.816259   -0.249623    0.564794
 O    2.487856   -0.645948    1.656393
 C    3.885988   -0.671850    1.336941
 C    4.041819   -0.261235   -0.145498
 C    4.916542    0.973587   -0.344849
 H   -4.410233   -1.703730    1.866298
 H   -5.719180   -0.640310    1.350019
 H   -4.469414   -0.033437    2.436426
 H   -5.563190    0.097168   -0.818498
 H   -4.283784    0.769127   -2.801586
 H   -1.842462    0.845017   -2.745580
 H   -2.292964   -0.889964    2.494157
 H    0.160314   -0.902114    2.550003
 H    4.249469   -1.682255    1.539786
 H    4.393197    0.027250    2.008379
 H    4.449281   -1.081182   -0.744668
 H    4.535302    1.811086    0.236064
 H    4.912454    1.250505   -1.395649
 H    5.939941    0.768226   -0.039507
