35 
4m0y_ligand_xtb.xyz
 C   10.532229    8.837401   22.727810
 C    9.839883    8.146635   23.732802
 C    8.820553    7.292275   23.414900
 C    8.442768    7.085917   22.071034
 C    9.107901    7.828504   21.056604
 C   10.165714    8.688510   21.420440
 C    8.690116    7.711820   19.714603
 C    7.639246    6.906062   19.376879
 C    6.994464    6.146345   20.358618
 C    7.399095    6.208112   21.670682
 N    6.741261    5.388398   22.601789
 C    7.308385    4.617228   23.568996
 C    6.275335    3.943428   24.183992
 C    5.107375    4.374904   23.506131
 N    5.426231    5.240591   22.546168
 C    3.745926    3.934858   23.811214
 O    3.507351    3.122242   24.696117
 N    2.790459    4.493001   23.041467
 N    6.264641    3.038284   25.220139
 C    7.371311    2.669223   25.940497
 O    8.490276    3.075952   25.714819
 N    7.082165    1.815222   26.967434
 H   11.343052    9.497750   22.997378
 H   10.114753    8.295808   24.766164
 H    8.285979    6.785858   24.203329
 H   10.675372    9.235138   20.640067
 H    9.210625    8.283142   18.959995
 H    7.309037    6.833233   18.351774
 H    6.178526    5.491130   20.095429
 H    8.362856    4.555231   23.730512
 H    1.824389    4.255555   23.187753
 H    3.054170    5.163218   22.341024
 H    5.328566    2.718985   25.457625
 H    7.858733    1.406293   27.456000
 H    6.189456    1.360348   27.032414
