39 
4m0z_ligand_dft.xyz
 N    0.266963   -0.639411    0.438679
 N    0.486596    0.523258    1.053719
 C    1.762542    0.810951    0.794723
 C    2.371558   -0.192403    0.008357
 C    1.374337   -1.120106   -0.204742
 N    3.689739   -0.150198   -0.416361
 C    4.289940   -1.163261   -1.126497
 N    5.625529   -0.939346   -1.393955
 O    3.708396   -2.182074   -1.463455
 C    2.417610    2.032776    1.299328
 N    1.625501    2.860718    2.020887
 O    3.601089    2.268635    1.056386
 C   -0.996420   -1.292986    0.519680
 C   -1.030275   -2.590308    0.968309
 C   -2.251386   -3.290841    1.031094
 C   -3.413677   -2.668753    0.654389
 C   -2.178490   -0.616274    0.101216
 C   -3.403936   -1.332725    0.185621
 C   -4.598395   -0.679757   -0.227911
 C   -4.577222    0.596950   -0.706291
 C   -3.346794    1.300316   -0.802255
 C   -2.170736    0.709198   -0.408059
 O   -3.452245    2.555725   -1.297906
 C   -2.267380    3.312344   -1.424482
 H    1.366542   -2.042145   -0.759938
 H    4.206278    0.646472   -0.055867
 H    6.009543   -1.571794   -2.079453
 H    5.964827    0.009672   -1.447214
 H    2.045294    3.659634    2.468832
 H    0.694166    2.569008    2.276832
 H   -0.107331   -3.065696    1.285238
 H   -2.262390   -4.315218    1.388317
 H   -4.362178   -3.196784    0.705650
 H   -5.538673   -1.220191   -0.160402
 H   -5.482667    1.102355   -1.025067
 H   -1.230474    1.239893   -0.459147
 H   -1.781464    3.460785   -0.451821
 H   -1.558229    2.832016   -2.110268
 H   -2.569112    4.277839   -1.831552
