39 
4m0z_ligand_ani-2x.xyz
 N   -4.869894    8.530941   13.587237
 N   -5.980370    7.956081   14.078528
 C   -5.544033    6.954993   14.842757
 C   -4.129101    6.896180   14.854870
 C   -3.730716    7.913178   14.024638
 N   -3.415498    5.967408   15.603763
 C   -2.047107    5.824705   15.518162
 N   -1.553969    4.792750   16.290179
 O   -1.346051    6.514335   14.801148
 C   -6.451025    6.034040   15.561465
 N   -7.765781    6.268187   15.365230
 O   -6.027649    5.127412   16.279593
 C   -4.922598    9.572572   12.621801
 C   -4.133301    9.471001   11.504641
 C   -4.184574   10.457590   10.498064
 C   -5.010183   11.539731   10.641652
 C   -5.774557   10.702903   12.826724
 C   -5.808737   11.688569   11.803635
 C   -6.647417   12.825198   11.971198
 C   -7.390276   13.000051   13.099021
 C   -7.332161   12.033577   14.135467
 C   -6.548757   10.911689   14.008555
 O   -8.100941   12.308244   15.221046
 C   -8.046526   11.385696   16.285122
 H   -2.743872    8.251266   13.744826
 H   -4.006943    5.306930   16.103785
 H   -0.547584    4.802039   16.367740
 H   -2.045048    4.529495   17.132461
 H   -8.429165    5.653199   15.809742
 H   -8.075578    6.997193   14.740751
 H   -3.481052    8.609957   11.383594
 H   -3.560729   10.346748    9.615107
 H   -5.058849   12.307304    9.871894
 H   -6.678827   13.565931   11.174942
 H   -8.031019   13.864946   13.242261
 H   -6.509988   10.159537   14.784092
 H   -8.393707   10.393938   15.966411
 H   -7.026092   11.293156   16.679290
 H   -8.706527   11.773030   17.062509
