42 
4m12_ligand_xtb.xyz
 N   -4.703276    8.371594   13.500280
 N   -5.742764    7.855050   14.136996
 C   -5.269238    6.859531   14.884887
 C   -3.867242    6.743822   14.713639
 C   -3.542445    7.731751   13.809620
 N   -3.096417    5.806163   15.360458
 C   -1.744239    5.656225   15.187699
 N   -1.208400    4.678930   15.977856
 O   -1.080296    6.335332   14.435543
 C   -6.089575    6.015588   15.751644
 N   -7.406638    6.312273   15.739858
 O   -5.608908    5.123146   16.438622
 C   -4.826362    9.428895   12.583220
 C   -4.056966    9.395719   11.442358
 C   -4.132533   10.423406   10.497918
 C   -4.983803   11.475720   10.695932
 C   -5.712590   10.513600   12.827482
 C   -5.782505   11.544735   11.852536
 C   -6.659159   12.629597   12.079860
 C   -7.414958   12.701623   13.208798
 C   -7.331993   11.686602   14.190317
 C   -6.492921   10.615996   13.996518
 O   -8.121663   11.874624   15.276379
 C   -8.101883   10.911467   16.312228
 C   -9.073860   11.368880   17.388222
 H   -2.589698    8.017170   13.419796
 H   -3.631659    5.220943   15.996630
 H   -0.246411    4.436735   15.820803
 H   -1.789467    4.022484   16.467035
 H   -8.050930    5.746683   16.265469
 H   -7.744173    7.008639   15.099012
 H   -3.398801    8.558677   11.266407
 H   -3.519580   10.370033    9.611309
 H   -5.055097   12.270484    9.968081
 H   -6.717090   13.409734   11.335044
 H   -8.086177   13.525832   13.391908
 H   -6.420308    9.827984   14.726422
 H   -7.088041   10.824991   16.726410
 H   -8.402630    9.930727   15.918288
 H   -8.773983   12.340873   17.769906
 H  -10.074415   11.454322   16.973255
 H   -9.084803   10.652621   18.204655
