42 
4m12_ligand_aiqm1.xyz
 N   -4.891013    8.189944   13.150952
 N   -5.873171    7.301677   13.304345
 C   -5.450427    6.479514   14.271444
 C   -4.178339    6.859078   14.742117
 C   -3.844695    7.970373   14.000080
 N   -3.500467    6.176315   15.740831
 C   -2.294602    6.570471   16.245429
 N   -1.855063    5.789430   17.295949
 O   -1.678226    7.538031   15.836803
 C   -6.252100    5.352694   14.768917
 N   -7.462099    5.214815   14.186427
 O   -5.835075    4.617024   15.660211
 C   -5.054953    9.282364   12.240727
 C   -4.552581    9.189028   10.968718
 C   -4.716741   10.261617   10.063067
 C   -5.383205   11.396812   10.452780
 C   -5.749563   10.444198   12.681475
 C   -5.910425   11.510124   11.761710
 C   -6.606189   12.673450   12.190042
 C   -7.106761   12.770676   13.456497
 C   -6.937358   11.697396   14.376677
 C   -6.273330   10.554597   13.998900
 O   -7.472244   11.910555   15.602170
 C   -7.309989   10.878705   16.573426
 C   -7.958960   11.362813   17.847430
 H   -2.969900    8.591967   14.031889
 H   -4.011841    5.410752   16.159297
 H   -0.880777    5.923038   17.507280
 H   -2.166937    4.834936   17.335023
 H   -8.045142    4.445267   14.456007
 H   -7.726544    5.830657   13.438546
 H   -4.035222    8.287013   10.665518
 H   -4.315289   10.176762    9.062977
 H   -5.514277   12.221282    9.761093
 H   -6.736226   13.492836   11.493214
 H   -7.637243   13.651438   13.793796
 H   -6.148110    9.737282   14.691272
 H   -6.245137   10.683696   16.721529
 H   -7.785093    9.962292   16.213156
 H   -7.481302   12.277649   18.196556
 H   -9.018279   11.560625   17.686149
 H   -7.859008   10.600006   18.618874
