45 
4m13_ligand_aiqm1.xyz
 N   -4.880205    8.230984   13.042324
 N   -5.877800    7.366638   13.228734
 C   -5.460416    6.560833   14.211869
 C   -4.175924    6.926716   14.659061
 C   -3.828968    8.012186   13.885508
 N   -3.500382    6.255939   15.667457
 C   -2.280966    6.637929   16.148334
 N   -1.845191    5.874900   17.213643
 O   -1.649764    7.581793   15.708241
 C   -6.278508    5.463215   14.746302
 N   -7.498123    5.335925   14.181413
 O   -5.866080    4.741540   15.651060
 C   -5.033204    9.303489   12.106801
 C   -4.548759    9.168205   10.831639
 C   -4.702318   10.221188    9.901412
 C   -5.340385   11.379377   10.270527
 C   -5.698285   10.490119   12.526591
 C   -5.848600   11.536016   11.582479
 C   -6.514551   12.723777   11.990604
 C   -6.996942   12.862701   13.260080
 C   -6.838132   11.809442   14.204919
 C   -6.202764   10.644029   13.846933
 O   -7.349375   12.063914   15.432514
 C   -7.227759   11.035889   16.413266
 C   -7.874433   11.529382   17.688330
 C   -7.169114   12.735652   18.295834
 H   -2.942036    8.617143   13.892450
 H   -4.022065    5.511727   16.110937
 H   -0.865943    5.993575   17.410443
 H   -2.176112    4.928421   17.280753
 H   -8.091520    4.582845   14.473980
 H   -7.757221    5.935780   13.418791
 H   -4.053644    8.248476   10.544937
 H   -4.315184   10.103210    8.899028
 H   -5.463090   12.189000    9.559994
 H   -6.636728   13.528346   11.275339
 H   -7.503962   13.763677   13.580082
 H   -6.085763    9.841894   14.557974
 H   -6.168885   10.812654   16.574554
 H   -7.723114   10.129186   16.053668
 H   -7.861610   10.696155   18.395156
 H   -8.922988   11.762345   17.485966
 H   -6.119596   12.512220   18.495003
 H   -7.207048   13.594366   17.625802
 H   -7.635045   13.021503   19.239469
