45 
4m14_ligand_aiqm1.xyz
 N    7.625904    3.792403   23.983357
 N    7.899007    3.444946   22.725784
 C    6.978215    4.071210   21.984584
 C    6.110845    4.836789   22.788940
 C    6.557447    4.637404   24.076432
 N    5.060669    5.585777   22.277827
 C    4.273894    6.406602   23.033505
 N    3.357339    7.126841   22.292732
 O    4.388768    6.524981   24.240334
 C    6.925934    3.966917   20.519730
 N    7.881676    3.187916   19.970755
 O    6.072250    4.563351   19.867536
 C    8.492580    3.378564   25.044380
 C    8.281708    2.176892   25.669356
 C    9.136137    1.766851   26.718235
 C   10.178159    2.569102   27.113859
 C    9.566438    4.232849   25.422468
 C   10.413158    3.811660   26.477558
 C   11.483285    4.664602   26.863560
 C   11.694370    5.860533   26.238481
 C   10.840135    6.276870   25.177891
 C    9.798943    5.475513   24.777952
 O   11.157892    7.473284   24.629417
 C   10.319875    7.996699   23.584870
 C    9.022594    8.547063   24.152887
 C   11.144144    9.068300   22.904729
 H    6.204708    5.038671   25.008463
 H    4.990084    5.588628   21.268805
 H    2.631950    7.538273   22.855229
 H    3.041651    6.731625   21.424281
 H    7.894149    3.061729   18.976449
 H    8.539701    2.715706   20.564356
 H    7.460447    1.547608   25.348278
 H    8.959801    0.817256   27.203791
 H   10.834978    2.258532   27.918613
 H   12.136991    4.353175   27.669744
 H   12.505163    6.517155   26.526145
 H    9.148392    5.786325   23.979202
 H   10.105652    7.194258   22.873743
 H    8.476977    7.793397   24.717236
 H    9.234813    9.386433   24.817242
 H    8.382189    8.896324   23.342816
 H   11.399789    9.849782   23.621555
 H   12.063322    8.650096   22.495116
 H   10.569477    9.513705   22.092978
