52 
4m3q_ligand_aiqm1.xyz
 C  -15.437676   41.358617  -20.789059
 C  -14.986334   41.808272  -19.405213
 C  -13.925047   42.899508  -19.474242
 C  -13.400927   43.329850  -18.103236
 N  -14.438614   43.811699  -17.212208
 C  -15.121490   43.032283  -16.337428
 N  -16.224129   43.594160  -15.808110
 C  -16.890170   42.825911  -14.945415
 C  -16.519156   41.544475  -14.574413
 C  -15.303455   41.080671  -15.168634
 N  -14.809207   39.869524  -14.857477
 C  -13.531708   39.362850  -15.343076
 C  -13.651741   38.792971  -16.758291
 C  -12.317556   38.227921  -17.231032
 C  -11.811184   37.162458  -16.277679
 O  -10.553921   36.712847  -16.782493
 C  -11.685935   37.717050  -14.863556
 C  -13.016102   38.292368  -14.384990
 N  -14.624904   41.820342  -16.063466
 C  -17.335187   40.756834  -13.632232
 C  -18.690963   41.071746  -13.432324
 C  -19.435271   40.349178  -12.511706
 C  -18.822577   39.316492  -11.807953
 C  -17.491781   39.046550  -12.087490
 N  -16.759425   39.732816  -12.974346
 H  -15.857484   42.195460  -21.351124
 H  -14.597313   40.961672  -21.363008
 H  -16.198242   40.580250  -20.725418
 H  -14.593369   40.957390  -18.843055
 H  -15.846089   42.178502  -18.836899
 H  -14.336766   43.771949  -19.996584
 H  -13.078202   42.551550  -20.071551
 H  -12.662786   44.126108  -18.228122
 H  -12.910969   42.491553  -17.613114
 H  -14.911481   44.668458  -17.447245
 H  -17.770147   43.282575  -14.507429
 H  -15.281461   39.407465  -14.085907
 H  -12.817083   40.192447  -15.366463
 H  -14.006180   39.568328  -17.436274
 H  -14.406799   37.996234  -16.746728
 H  -11.571105   39.026720  -17.280071
 H  -12.407779   37.800801  -18.231034
 H  -12.522469   36.323012  -16.263093
 H  -10.239625   36.006004  -16.215154
 H  -10.920371   38.499055  -14.870545
 H  -11.343516   36.931160  -14.183563
 H  -13.758140   37.486624  -14.331908
 H  -12.914353   38.712354  -13.381097
 H  -19.162422   41.859007  -14.002247
 H  -20.478852   40.586018  -12.351120
 H  -19.359777   38.730690  -11.075678
 H  -16.978062   38.236523  -11.582503
