20 
4m5r_ligand_ani-2x.xyz
 C   10.712011   12.699846  -16.740812
 C   10.566094   11.744520  -17.735272
 C   11.282461   10.549634  -17.663926
 O   11.094430    9.646493  -18.666174
 C   12.148678   10.322019  -16.596027
 C   12.298977   11.287551  -15.607104
 C   11.579045   12.476878  -15.670525
 N   11.730487   13.462667  -14.652308
 C   12.915953   13.983335  -14.176069
 C   12.562419   14.904122  -13.232248
 N   11.194518   14.965413  -13.101524
 C   10.733806   14.095563  -13.962201
 H   10.162718   13.636374  -16.800968
 H    9.897167   11.906562  -18.575176
 H   11.643686    8.870891  -18.496804
 H   12.711888    9.391895  -16.535124
 H   12.969732   11.109965  -14.770655
 H   13.869589   13.668966  -14.572963
 H   13.213150   15.531176  -12.637353
 H    9.689890   13.860429  -14.122966
