35 
4m7b_ligand_ani-2x.xyz
 C    4.006546   14.771977  -13.615999
 C    4.979267   13.628175  -13.762821
 C    5.495167   12.989506  -12.584952
 N    5.289935   13.292941  -14.987808
 N    6.162472   12.264016  -15.079455
 C    6.670414   11.680993  -16.200370
 N    7.481656   10.707936  -15.868778
 N    7.527845   10.625823  -14.508975
 C    6.730800   11.569422  -14.052654
 C    6.382480   11.952211  -12.713946
 N    6.978411   11.248699  -11.725726
 C    6.672340   11.407000  -10.321454
 C    7.555667   10.475502   -9.489839
 C    7.244195   10.523900   -8.014896
 C    8.096219   11.155660   -7.106721
 C    7.794812   11.218079   -5.752560
 C    6.618928   10.638103   -5.278646
 O    6.369617   10.723058   -3.941765
 C    5.753062   10.003421   -6.168767
 C    6.069199    9.956804   -7.522181
 H    3.109241   14.453114  -13.073641
 H    4.456674   15.596459  -13.051531
 H    3.722142   15.126605  -14.608141
 H    5.170918   13.338887  -11.608073
 H    6.409471   12.010838  -17.194129
 H    7.534178   10.467111  -12.049638
 H    5.609469   11.193409  -10.125288
 H    6.842483   12.450099  -10.024933
 H    8.606156   10.738010   -9.664196
 H    7.412995    9.452551   -9.864792
 H    9.019352   11.607338   -7.466208
 H    8.460083   11.709132   -5.047951
 H    5.531284   10.284540   -3.749440
 H    4.831378    9.549844   -5.806449
 H    5.384440    9.466938   -8.212875
