91 
4m7j_ligand_aiqm1.xyz
 C    1.449054    1.932775   -1.149993
 O    0.418717    2.586296   -0.647041
 O    1.907307    2.125800   -2.246881
 C    2.029706    0.896108   -0.174477
 C    1.103515    0.619666    1.003835
 C    1.649726   -0.531341    1.840026
 O    0.753906   -0.982319    2.873334
 C    1.854762   -1.748968    0.947176
 O    0.597589   -2.198890    0.431418
 C    2.766133   -1.358675   -0.215799
 O    2.201250   -0.279622   -0.950622
 C    3.161189   -2.488975   -1.181937
 O    4.324177   -2.090699   -1.898664
 C    2.145963   -2.859036   -2.256230
 O    1.054580   -3.640522   -1.786327
 O    3.252708    1.339587    0.345071
 C    4.277104    1.648337   -0.620511
 C    5.586312    1.556248    0.086393
 C    6.606091    0.831540   -0.374676
 C    1.276075    0.997352    4.166084
 O    0.874357    2.265673    4.068235
 O    2.362107    0.668432    4.562569
 C    0.205029   -0.032141    3.764868
 C   -0.233122   -0.777426    5.018130
 C   -1.372423   -1.740200    4.702275
 O   -1.844976   -2.398163    5.859533
 C   -2.496410   -0.992786    4.001752
 O   -3.099240   -0.143489    4.975094
 C   -1.949545   -0.217935    2.802347
 O   -0.863899    0.645092    3.169962
 C   -2.991196    0.682437    2.144933
 O   -4.244542    0.011353    2.147044
 C   -2.586731    1.098273    0.743273
 O   -2.418662   -0.101201   -0.023375
 C   -4.240892    0.343429   -1.553939
 O   -5.005763   -0.391268   -0.712220
 O   -4.702896    1.116215   -2.340516
 C   -2.729653   -0.000833   -1.384853
 C   -2.491470   -1.364729   -2.027468
 C   -1.128125   -1.438978   -2.699840
 O   -0.998065   -2.672439   -3.378473
 C   -1.058389   -0.347993   -3.753848
 O   -2.067814   -0.531046   -4.745930
 C   -1.224644    1.027350   -3.112530
 O   -1.983124    1.064690   -1.885402
 C   -1.821463    2.076519   -4.053082
 O   -1.045378    2.132625   -5.243057
 C   -1.803789    3.462665   -3.440242
 O   -0.539345    3.804119   -2.856505
 H    0.056555    3.142409   -1.378795
 H    0.988294    1.524712    1.595152
 H    0.126668    0.328143    0.603703
 H    2.607670   -0.255560    2.294998
 H    2.318725   -2.549831    1.528830
 H    0.018196   -2.314815    1.190673
 H    3.702969   -1.029143    0.249493
 H    3.375075   -3.370794   -0.565968
 H    5.070568   -2.071930   -1.295777
 H    2.663051   -3.466079   -2.996029
 H    1.789266   -1.943745   -2.738810
 H    0.753499   -3.260112   -0.945512
 H    4.102513    2.659674   -0.999997
 H    4.226407    0.947333   -1.455787
 H    5.672482    2.103934    1.019071
 H    7.555061    0.799836    0.141114
 H    6.524340    0.288888   -1.308529
 H    1.611410    2.804927    4.384732
 H   -0.589535   -0.039879    5.740280
 H    0.610942   -1.316603    5.448854
 H   -1.012650   -2.522260    4.032915
 H   -2.398630   -1.762211    6.324842
 H   -3.227157   -1.711560    3.629641
 H   -3.987714    0.050368    4.671975
 H   -1.594232   -0.953634    2.066471
 H   -3.103945    1.585659    2.746169
 H   -4.390639   -0.376684    1.276663
 H   -1.665408    1.681387    0.736101
 H   -3.385715    1.708336    0.316060
 H   -5.926681   -0.171501   -0.903216
 H   -3.246498   -1.539954   -2.793273
 H   -2.607103   -2.132550   -1.265087
 H   -0.333618   -1.277658   -1.968904
 H   -0.353960   -3.220891   -2.911381
 H   -0.083372   -0.382510   -4.244036
 H   -1.997166   -1.446670   -5.027816
 H   -0.215003    1.348780   -2.824493
 H   -2.860552    1.811462   -4.263494
 H   -1.245619    1.334663   -5.737980
 H   -2.064953    4.189304   -4.213146
 H   -2.532955    3.514999   -2.633096
 H    0.133411    3.688654   -3.533324
