42 
4m84_ligand_aiqm1.xyz
 C   17.665985   16.664932   63.406061
 C   16.373908   16.853741   63.800872
 C   15.705131   15.833535   64.521034
 C   14.366545   15.956079   64.968843
 C   13.768277   14.935994   65.664169
 C   14.491841   13.749654   65.938802
 C   15.788104   13.607469   65.515418
 C   16.427194   14.647879   64.794364
 N   17.720131   14.465297   64.388439
 C   18.319676   15.432340   63.725717
 C   19.730228   15.274168   63.299278
 N   20.310658   16.344902   62.765822
 N   21.586522   16.006681   62.476625
 C   22.497464   17.008743   61.868854
 C   22.890981   16.540747   60.464675
 C   21.761621   18.340494   61.742629
 C   23.711671   17.196267   62.777205
 C   21.829667   14.714839   62.806680
 N   23.054038   14.092744   62.715690
 C   20.652180   14.180264   63.344453
 C   20.607996   12.761071   63.745929
 O   21.610921   12.047347   63.617444
 N   19.455354   12.254245   64.214326
 H   18.212470   17.422440   62.863134
 H   15.850814   17.775737   63.573675
 H   13.824851   16.869606   64.752691
 H   12.745931   15.034026   66.004279
 H   14.014192   12.949775   66.488499
 H   16.348746   12.703048   65.723156
 H   23.521080   15.650838   60.457758
 H   21.992194   16.332787   59.883072
 H   23.450522   17.336723   59.969420
 H   20.894924   18.249573   61.088386
 H   21.429183   18.694836   62.717662
 H   22.447100   19.075061   61.317879
 H   23.378618   17.556302   63.750753
 H   24.262673   16.270169   62.921544
 H   24.379586   17.941626   62.339149
 H   23.587586   14.300979   61.885337
 H   22.943253   13.099342   62.919066
 H   19.472031   11.309345   64.551977
 H   18.678052   12.878754   64.408332
