42 
4m84_ligand_xtb.xyz
 C   17.761132   16.744653   63.605186
 C   16.472859   16.930143   64.006021
 C   15.756962   15.855165   64.581540
 C   14.425582   15.952579   65.023708
 C   13.797286   14.867285   65.571582
 C   14.473945   13.644696   65.698483
 C   15.769343   13.516517   65.278334
 C   16.441459   14.617908   64.710142
 N   17.716754   14.462148   64.305408
 C   18.368789   15.470910   63.771630
 C   19.743993   15.303635   63.330633
 N   20.337696   16.364826   62.796564
 N   21.577241   16.010814   62.451631
 C   22.457803   16.980923   61.810019
 C   22.893886   16.436606   60.446515
 C   21.672447   18.278186   61.616405
 C   23.666887   17.258131   62.711900
 C   21.814651   14.713838   62.761623
 N   22.938081   14.004012   62.465192
 C   20.645684   14.200332   63.339264
 C   20.604824   12.822027   63.842192
 O   21.592816   12.086955   63.767129
 N   19.457026   12.416046   64.397625
 H   18.347639   17.531280   63.161143
 H   15.983356   17.887958   63.892368
 H   13.911361   16.898024   64.922163
 H   12.774718   14.944203   65.910486
 H   13.959712   12.800253   66.133475
 H   16.300327   12.581381   65.369986
 H   23.381930   15.471420   60.543871
 H   22.026168   16.314792   59.802547
 H   23.582291   17.132992   59.974953
 H   20.779049   18.092743   61.027854
 H   21.368140   18.682860   62.577104
 H   22.292627   19.007122   61.101813
 H   23.334097   17.502693   63.718304
 H   24.339975   16.406584   62.766408
 H   24.228465   18.101806   62.319293
 H   23.830622   14.455980   62.578197
 H   22.860120   13.072997   62.886631
 H   19.413895   11.477406   64.757063
 H   18.658262   13.059568   64.446715
