37 
4mbi_ligand_aiqm1.xyz
 N   23.231693   32.895341   -4.012213
 N   23.169290   38.085551   -0.410176
 C   22.958008   35.379963   -4.495392
 C   23.343230   37.217882   -2.954743
 C   23.545146   38.613207   -2.661167
 C   23.440130   39.018285   -1.360462
 C   22.990515   36.761533   -0.761529
 C   22.743888   34.550881    0.293909
 C   22.919365   37.009562    1.405495
 C   24.130713   31.889506   -3.337495
 C   21.836570   32.660137   -3.486930
 C   23.742600   34.284830   -3.754237
 N   23.529414   36.693010   -4.231499
 N   23.023970   36.347205   -2.044022
 C   22.839042   36.021453    0.401913
 C   21.640074   33.793608   -0.091448
 N   22.033509   32.586610   -0.540276
 N   23.383308   32.519654   -0.450092
 C   23.813509   33.690486    0.050223
 N   23.117329   38.258097    0.929982
 H   23.243026   32.727144   -5.021404
 H   21.907396   35.346226   -4.184319
 H   22.997657   35.211321   -5.576167
 H   23.783850   39.328709   -3.435468
 H   23.566318   40.034173   -1.013306
 H   22.851420   36.891702    2.474481
 H   24.025326   32.009680   -2.256115
 H   23.808401   30.889446   -3.618887
 H   25.161842   32.056694   -3.650929
 H   21.485673   31.705193   -3.874710
 H   21.872030   32.617916   -2.391394
 H   21.173206   33.455775   -3.816035
 H   24.790687   34.316012   -4.062126
 H   23.673921   34.444391   -2.687917
 H   23.404711   37.355987   -4.980372
 H   20.590018   34.055777   -0.084156
 H   24.871714   33.867254    0.210082
