87 
4mbp_ligand_dft.xyz
 C   -5.512543    0.189917   -0.134884
 C   -6.088354    0.730410   -1.446260
 C   -5.539439    2.133068   -1.693924
 C   -5.840398    3.027925   -0.501182
 C   -5.262800    2.385207    0.756882
 C   -5.607927    3.114471    2.043639
 O   -5.852237   -0.111594   -2.547253
 O   -6.127618    2.715779   -2.838901
 O   -5.262324    4.305470   -0.652435
 O   -5.792557    1.066007    0.919653
 O   -5.096098    2.429255    3.165349
 C   -1.141225   -2.720864    0.525321
 C   -2.100157   -3.076078   -0.614934
 C   -2.838541   -1.818268   -1.061022
 C   -3.522004   -1.165977    0.126101
 C   -2.489680   -0.872366    1.219947
 C   -3.105449   -0.344702    2.503537
 O   -1.460410   -3.703750   -1.696299
 O   -3.820747   -2.129381   -2.029212
 O   -4.129021    0.025961   -0.324092
 O   -1.821640   -2.090403    1.575394
 O   -4.118836   -1.193365    2.998325
 C    3.972243   -1.573857   -0.082913
 C    3.316398   -2.306046   -1.253642
 C    1.828933   -1.966275   -1.294197
 C    1.196400   -2.289652    0.044794
 C    1.939751   -1.568941    1.176489
 C    1.465589   -2.005859    2.553547
 O    3.934336   -2.024705   -2.482082
 O    1.178327   -2.722404   -2.295355
 O   -0.150365   -1.869123   -0.001225
 O    3.336562   -1.883423    1.131064
 O    1.622780   -3.394447    2.742877
 C    6.709957    2.677432    0.258613
 C    6.653069    2.171087   -1.201112
 C    5.373250    1.356167   -1.404412
 C    5.028626    0.605023   -0.130319
 C    4.701147    1.620470    0.980880
 C    4.883208    1.030144    2.369911
 O    7.321876    3.923827    0.236373
 O    6.654605    3.209931   -2.146494
 O    5.504415    0.408001   -2.448527
 O    3.896476   -0.205093   -0.369618
 O    5.415266    2.838610    0.807323
 O    6.220856    0.584001    2.505169
 H   -5.976725   -0.763418    0.134507
 H   -7.175914    0.805920   -1.327602
 H   -4.446910    2.070523   -1.816256
 H   -6.935473    3.104613   -0.392852
 H   -4.170817    2.329048    0.659042
 H   -5.154945    4.107642    2.029880
 H   -6.700717    3.233950    2.110646
 H   -5.016712   -0.594971   -2.408217
 H   -6.073064    2.043144   -3.532614
 H   -5.491891    4.598235   -1.544849
 H   -5.455758    1.531705    3.120931
 H   -0.686775   -3.616553    0.958627
 H   -2.836677   -3.792639   -0.233985
 H   -2.108760   -1.106859   -1.477154
 H   -4.277213   -1.849088    0.533849
 H   -1.757926   -0.145039    0.844269
 H   -3.565773    0.628001    2.326789
 H   -2.301755   -0.208079    3.241969
 H   -0.654088   -3.203871   -1.928643
 H   -3.395436   -2.724438   -2.663879
 H   -3.702954   -2.046749    3.177164
 H    5.013990   -1.886752    0.038786
 H    3.416851   -3.384472   -1.083057
 H    1.710189   -0.891212   -1.492716
 H    1.255340   -3.372160    0.212774
 H    1.795528   -0.486228    1.061994
 H    0.400399   -1.787396    2.660987
 H    2.016464   -1.431327    3.313705
 H    4.251509   -1.100544   -2.469663
 H    1.724497   -2.652733   -3.091510
 H    2.553903   -3.589522    2.571998
 H    7.271730    1.969040    0.881474
 H    7.513187    1.502293   -1.363122
 H    4.565012    2.064926   -1.629407
 H    5.876854   -0.025602    0.164792
 H    3.644444    1.884336    0.864000
 H    4.173127    0.197327    2.479506
 H    4.641577    1.802701    3.112623
 H    7.229402    4.317039    1.113101
 H    7.053417    3.979761   -1.713857
 H    5.710487    0.892390   -3.258396
 H    6.318892    0.169193    3.368933
