87 
4mbp_ligand_ani-2x.xyz
 C   -5.267355    0.256481   -1.274560
 C   -5.410156    1.536260   -2.105289
 C   -5.696910    2.723544   -1.199980
 C   -6.872407    2.427092   -0.279740
 C   -6.557327    1.147996    0.485138
 C   -7.608121    0.674717    1.470702
 O   -4.245162    1.825597   -2.846552
 O   -6.018178    3.869532   -1.959729
 O   -7.060858    3.475326    0.643906
 O   -6.379106    0.071979   -0.450211
 O   -7.082064   -0.339942    2.302967
 C   -0.949817   -2.329117    0.129811
 C   -1.393840   -2.131424   -1.325842
 C   -2.203522   -0.850347   -1.427533
 C   -3.361945   -0.913439   -0.450778
 C   -2.824580   -1.131224    0.962908
 C   -3.934468   -1.308837    1.990083
 O   -0.307512   -2.015368   -2.216018
 O   -2.710516   -0.677049   -2.741560
 O   -4.088687    0.303195   -0.504510
 O   -2.056501   -2.343376    0.989453
 O   -4.878305   -2.287094    1.597437
 C    3.956827   -0.992654    1.409732
 C    3.574962   -2.202942    0.547199
 C    2.199777   -1.963170   -0.057644
 C    1.187742   -1.701387    1.045534
 C    1.675784   -0.558474    1.941882
 C    0.822494   -0.429914    3.196012
 O    4.516326   -2.528508   -0.446188
 O    1.827934   -3.113985   -0.805552
 O   -0.056514   -1.296559    0.486013
 O    3.007226   -0.816409    2.417959
 O    0.837482   -1.618960    3.953527
 C    7.415995    1.678699   -1.048344
 C    6.182243    1.738339   -1.953484
 C    5.044986    0.876933   -1.398864
 C    5.276268    0.523187    0.070114
 C    5.875396    1.721775    0.806741
 C    6.044897    1.454719    2.292563
 O    8.350805    2.582884   -1.563007
 O    5.705627    3.065653   -1.999214
 O    4.902859   -0.360447   -2.101925
 O    4.013808    0.189614    0.634144
 O    7.159755    2.053606    0.286670
 O    6.815541    0.272890    2.436220
 H   -5.229323   -0.607163   -1.951158
 H   -6.271641    1.411183   -2.784653
 H   -4.805292    2.906241   -0.578445
 H   -7.776202    2.265120   -0.892925
 H   -5.622490    1.309377    1.044094
 H   -7.911603    1.501530    2.120114
 H   -8.493653    0.326800    0.915624
 H   -3.730609    1.004625   -2.946260
 H   -5.266638    4.023044   -2.549958
 H   -7.135903    4.286927    0.122666
 H   -6.648293   -1.005231    1.738942
 H   -0.453488   -3.299638    0.243314
 H   -2.040108   -2.977876   -1.616742
 H   -1.556715   -0.001689   -1.167969
 H   -4.012095   -1.762175   -0.709550
 H   -2.192275   -0.279695    1.251433
 H   -4.485354   -0.373163    2.114129
 H   -3.487617   -1.564061    2.960364
 H    0.437516   -2.531776   -1.858141
 H   -1.962881   -0.829325   -3.338634
 H   -4.397900   -3.123193    1.516636
 H    4.926951   -1.157437    1.891337
 H    3.511227   -3.082029    1.199141
 H    2.223429   -1.087017   -0.719949
 H    1.055578   -2.607020    1.656744
 H    1.653083    0.381811    1.375075
 H   -0.220830   -0.244942    2.921335
 H    1.179351    0.428835    3.784411
 H    4.590751   -1.777729   -1.068034
 H    2.640549   -3.424799   -1.236580
 H    1.771072   -1.797052    4.134337
 H    7.823650    0.650216   -1.062381
 H    6.463039    1.371281   -2.952093
 H    4.131679    1.473396   -1.466127
 H    5.966478   -0.331152    0.134641
 H    5.201023    2.581836    0.678147
 H    5.055268    1.337478    2.760120
 H    6.548371    2.321105    2.742991
 H    8.801854    2.949518   -0.791092
 H    6.480478    3.620967   -2.170258
 H    4.354023   -0.224755   -2.885146
 H    7.134150    0.224688    3.344652
