37 
4men_ligand_xtb.xyz
 C   31.752629   19.214231    1.989033
 C   31.726984   17.995955    1.122419
 C   30.506800   17.402917    0.780881
 N   32.890186   17.537417    0.709441
 C   32.870572   16.467376   -0.059541
 N   31.678942   15.821396   -0.435809
 N   32.002319   14.765179   -1.204857
 C   33.316636   14.816140   -1.264991
 N   33.887785   15.816898   -0.595870
 C   30.461036   16.268560   -0.027338
 N   29.318302   15.613084   -0.338096
 C   28.066698   16.092872    0.203082
 C   29.187217   14.752827   -1.503598
 C   28.606807   15.511015   -2.670965
 C   27.381917   15.163676   -3.221052
 C   26.854693   15.882735   -4.279173
 C   29.289432   16.600577   -3.199251
 C   28.758548   17.321421   -4.250652
 C   27.532652   16.972818   -4.806926
 C   26.974842   17.744810   -5.963075
 H   31.180299   20.017843    1.529086
 H   31.310613   18.995513    2.959553
 H   32.780700   19.533985    2.125105
 H   29.597881   17.850276    1.140699
 H   33.878811   14.091708   -1.819480
 H   28.141951   16.200546    1.285239
 H   27.764999   17.049584   -0.235383
 H   27.295114   15.358503   -0.017089
 H   28.536989   13.914932   -1.234751
 H   30.175487   14.363178   -1.759050
 H   26.836298   14.318489   -2.824888
 H   25.900893   15.594024   -4.697349
 H   30.246832   16.884501   -2.785561
 H   29.302873   18.165422   -4.649535
 H   27.443732   17.414762   -6.890569
 H   25.902077   17.592267   -6.052849
 H   27.173156   18.808562   -5.849837
