43 
4mg6_ligand_xtb.xyz
 C   25.725394    3.101868    4.012426
 C   25.252869    3.676209    5.341516
 C   23.733397    3.613766    5.465225
 C   23.258685    4.185291    6.795694
 O   21.838896    4.066730    6.894594
 C   21.120003    5.178754    7.022309
 O   21.569127    6.289444    7.140733
 C   19.660523    4.860938    7.087872
 C   19.180343    4.110529    8.153184
 C   17.821585    3.886657    8.295350
 C   16.928992    4.418139    7.378135
 C   17.399168    5.157265    6.309221
 C   18.764511    5.376003    6.149853
 C   19.206540    6.127437    4.944503
 O   18.515509    6.929420    4.366921
 O   20.428866    5.767304    4.543060
 C   20.928117    6.402621    3.361375
 C   22.419629    6.560098    3.438032
 C   23.000484    7.192343    4.531111
 C   24.373502    7.348540    4.595425
 C   25.177036    6.893509    3.563213
 C   24.602521    6.270988    2.468411
 C   23.230260    6.098042    2.409363
 H   25.428070    2.059899    3.918733
 H   25.290393    3.660337    3.187265
 H   26.808364    3.158699    3.935235
 H   25.575065    4.716057    5.422264
 H   25.707702    3.118619    6.163426
 H   23.394856    2.578768    5.386104
 H   23.274467    4.182976    4.654980
 H   23.534977    5.240511    6.886795
 H   23.684413    3.623128    7.633279
 H   19.876922    3.712224    8.875369
 H   17.459112    3.301999    9.127587
 H   15.868661    4.252967    7.495175
 H   16.723853    5.574846    5.577829
 H   20.437419    7.380131    3.264109
 H   20.644299    5.787019    2.499853
 H   22.376278    7.543107    5.338378
 H   24.815993    7.834864    5.452314
 H   26.248291    7.023424    3.610250
 H   25.223797    5.918642    1.657799
 H   22.785610    5.605988    1.555829
