56 
4mg7_ligand_aiqm1.xyz
 C   -0.814148   -2.751553    2.360889
 C   -0.685770   -1.916264    1.082957
 C   -1.301578   -2.656555   -0.104836
 C   -1.256757   -0.498053    1.300072
 C   -1.292665    0.401112    0.023536
 O   -0.525148    0.122064    2.366451
 C   -2.733129   -0.516190    1.778173
 C   -3.507011    0.439223    0.857356
 C   -2.450683    1.400127    0.284202
 C   -2.125251    2.477373    1.329859
 C   -2.957687    2.052752   -1.017441
 C   -2.089284    3.177609   -1.516720
 C   -0.796237    3.047484   -1.843027
 C    0.031913    4.222343   -2.284737
 C   -0.108166    1.705535   -1.819175
 C    0.005080    1.049189   -0.439488
 O    1.015600    0.009886   -0.647530
 C    2.028110   -0.056397    0.211309
 O    2.059908    0.581946    1.246755
 C    3.078600   -1.013022   -0.190806
 C    4.223412   -1.111042    0.601937
 C    5.232445   -2.001406    0.270437
 C    5.098657   -2.805390   -0.862014
 O    6.054672   -3.698084   -1.237643
 C    3.957581   -2.719463   -1.661991
 C    2.954622   -1.825886   -1.324553
 H   -1.852987   -3.016375    2.564777
 H   -0.250157   -3.681399    2.257962
 H   -0.429736   -2.201598    3.217503
 H    0.382488   -1.803385    0.889460
 H   -0.922548   -3.680476   -0.140543
 H   -2.391049   -2.714288   -0.018919
 H   -1.060751   -2.181546   -1.057706
 H   -1.639439   -0.227618   -0.813511
 H    0.392040    0.277730    2.104890
 H   -3.147642   -1.523154    1.760391
 H   -2.750214   -0.166230    2.808805
 H   -4.304793    0.973078    1.376776
 H   -3.960829   -0.117102    0.029628
 H   -1.826915    2.034805    2.276605
 H   -1.329801    3.146253    0.996732
 H   -3.019084    3.088547    1.494690
 H   -3.967857    2.431877   -0.837319
 H   -3.045070    1.270721   -1.784964
 H   -2.527680    4.171367   -1.574652
 H    0.489062    4.029922   -3.258260
 H   -0.573786    5.126685   -2.359430
 H    0.846708    4.406691   -1.579549
 H   -0.642488    1.010127   -2.479267
 H    0.900148    1.807646   -2.222616
 H    0.387431    1.755676    0.296203
 H    4.308129   -0.481289    1.475877
 H    6.119849   -2.074559    0.888822
 H    6.779845   -3.666760   -0.610230
 H    3.877804   -3.356410   -2.532409
 H    2.062438   -1.756474   -1.933219
