49 
4mg8_ligand_ani-2x.xyz
 C   -3.504287    0.117793   -0.668533
 C   -2.378155    0.963769   -0.075580
 C   -1.848665    2.042615   -1.016225
 C   -0.592982    2.707874   -0.472748
 C   -0.114719    3.861324   -1.337165
 O    0.428227    1.669809   -0.427824
 C    1.449455    1.852699    0.413289
 O    1.514560    2.856858    1.117880
 C    2.507075    0.803767    0.413182
 C    3.775915    1.195615    0.927622
 O    3.999336    2.376252    1.514053
 C    4.885175    0.352288    0.820489
 C    4.739441   -0.903221    0.263809
 O    5.783562   -1.759743    0.126103
 C    3.483638   -1.344846   -0.153486
 C    2.364505   -0.527195   -0.064068
 C    1.053999   -1.186139   -0.458717
 C    0.517492   -2.166695    0.599912
 C   -0.558458   -3.121017    0.063297
 C   -1.843972   -2.448162   -0.430763
 C   -2.728434   -1.911279    0.696249
 C   -3.907369   -1.049031    0.229558
 O   -4.566520   -0.484024    1.357036
 H   -4.396658    0.733947   -0.830186
 H   -3.209198   -0.269591   -1.653402
 H   -1.539103    0.316137    0.199520
 H   -2.725206    1.412777    0.864041
 H   -2.613339    2.814215   -1.181879
 H   -1.615161    1.612697   -2.000543
 H   -0.763127    3.051254    0.551905
 H    0.154168    3.500836   -2.335769
 H    0.752976    4.351506   -0.890962
 H   -0.913367    4.604523   -1.436582
 H    3.137774    2.846003    1.571160
 H    5.841258    0.712530    1.190984
 H    6.583451   -1.333632    0.459541
 H    3.390633   -2.355801   -0.536292
 H    0.304987   -0.438835   -0.706791
 H    1.247070   -1.754647   -1.378929
 H    1.350724   -2.773406    0.977819
 H    0.147038   -1.602448    1.466833
 H   -0.121129   -3.695886   -0.765493
 H   -0.810568   -3.856392    0.840155
 H   -1.575593   -1.639590   -1.123904
 H   -2.426130   -3.166485   -1.023223
 H   -3.122297   -2.757038    1.278338
 H   -2.131898   -1.321957    1.406357
 H   -4.614821   -1.681634   -0.334245
 H   -4.791704   -1.208596    1.954077
