28 
4mg9_ligand_dft.xyz
 C    4.287361    1.770059   -1.070433
 C    3.293551    0.670702   -0.700815
 C    3.463283    0.197428    0.743601
 C    2.552096   -0.958671    1.128464
 O    1.174099   -0.565785    1.055411
 C    0.463899   -0.976797   -0.011845
 O    0.907994   -1.686408   -0.888112
 C   -0.926572   -0.457235    0.011189
 C   -1.783549   -0.817158   -1.034336
 C   -3.089014   -0.360189   -1.069404
 C   -3.555719    0.471772   -0.048060
 O   -4.841318    0.892644   -0.128657
 C   -2.708696    0.838812    1.000471
 C   -1.401048    0.374628    1.026529
 H    4.173454    2.641467   -0.414980
 H    5.320780    1.416558   -0.976134
 H    4.141337    2.105954   -2.101937
 H    3.404795   -0.183063   -1.379636
 H    2.271414    1.042008   -0.841517
 H    3.291007    1.035816    1.431140
 H    4.498340   -0.133935    0.905265
 H    2.713512   -1.253050    2.168696
 H    2.709411   -1.822098    0.478243
 H   -1.403173   -1.463043   -1.818679
 H   -3.763192   -0.632351   -1.874213
 H   -5.042567    1.455562    0.628731
 H   -3.072400    1.487061    1.794698
 H   -0.742471    0.659399    1.839024
