28 
4mg9_ligand_aiqm1.xyz
 C   -7.317247   -5.392450   24.145661
 C   -6.658855   -4.345690   23.254389
 C   -6.555070   -2.994261   23.951976
 C   -6.007060   -1.879171   23.079368
 O   -4.625977   -2.108831   22.737937
 C   -4.382431   -2.585922   21.505342
 O   -5.243495   -2.851479   20.697920
 C   -2.934575   -2.750099   21.246752
 C   -2.544703   -3.256657   20.002486
 C   -1.205912   -3.433604   19.698281
 C   -0.240486   -3.098808   20.649171
 O    1.063274   -3.289598   20.306738
 C   -0.615951   -2.590320   21.892726
 C   -1.960015   -2.416723   22.189146
 H   -6.746271   -5.532709   25.065526
 H   -8.327772   -5.086562   24.425403
 H   -7.385738   -6.355953   23.641768
 H   -7.229331   -4.231470   22.329916
 H   -5.662389   -4.684333   22.960455
 H   -5.934923   -3.085763   24.849432
 H   -7.547971   -2.679605   24.284226
 H   -6.014619   -0.931453   23.619625
 H   -6.584314   -1.780198   22.160844
 H   -3.313520   -3.504602   19.284144
 H   -0.890140   -3.824480   18.740670
 H    1.623292   -3.023574   21.038957
 H    0.142252   -2.331888   22.623801
 H   -2.255055   -2.021897   23.150939
