37 
4mga_ligand_xtb.xyz
 C   -6.272970   -6.458582   20.807785
 C   -5.562816   -5.612924   21.876376
 C   -4.074097   -5.957286   21.844433
 C   -6.148314   -6.009088   23.235977
 C   -5.852787   -4.133982   21.529857
 C   -4.983775   -2.981395   22.087475
 C   -5.011784   -2.952715   23.617184
 C   -5.630425   -1.666420   21.606143
 C   -3.569785   -3.000939   21.527505
 C   -2.438603   -2.898468   22.330737
 C   -1.165345   -2.880223   21.794618
 C   -0.983164   -2.956928   20.420534
 O    0.286592   -2.939474   19.925209
 C   -2.100128   -3.042250   19.600952
 C   -3.367041   -3.058395   20.151764
 H   -7.334757   -6.222897   20.774293
 H   -5.848323   -6.273364   19.823331
 H   -6.166548   -7.518701   21.027194
 H   -3.637076   -5.698417   20.883466
 H   -3.526148   -5.428772   22.618324
 H   -3.941724   -7.025995   22.004210
 H   -5.631080   -5.525420   24.057013
 H   -7.203043   -5.747362   23.291028
 H   -6.060486   -7.084965   23.375780
 H   -6.883811   -3.930231   21.832193
 H   -5.828334   -4.052643   20.442157
 H   -4.596872   -2.016415   23.985545
 H   -6.040464   -3.022116   23.963678
 H   -4.447124   -3.772925   24.049140
 H   -6.622524   -1.550889   22.037851
 H   -5.021500   -0.817610   21.910602
 H   -5.723846   -1.644268   20.523641
 H   -2.530136   -2.831329   23.402429
 H   -0.297455   -2.804664   22.430533
 H    0.259227   -2.995502   18.962685
 H   -1.976986   -3.093344   18.526176
 H   -4.208747   -3.118601   19.478382
