37 
4mga_ligand_aiqm1.xyz
 C   -6.356408   -6.446128   20.839253
 C   -5.571588   -5.614470   21.866001
 C   -4.095575   -6.011305   21.765208
 C   -6.106117   -5.990539   23.253801
 C   -5.834112   -4.136057   21.509403
 C   -4.985740   -2.974614   22.078784
 C   -5.004561   -2.963202   23.613526
 C   -5.675410   -1.669995   21.614395
 C   -3.556876   -2.972856   21.523871
 C   -2.423354   -2.848863   22.340146
 C   -1.134277   -2.831688   21.813692
 C   -0.945343   -2.933923   20.442864
 O    0.340740   -2.918294   19.974514
 C   -2.047070   -3.047116   19.605836
 C   -3.328638   -3.060651   20.145027
 H   -7.414503   -6.172781   20.847538
 H   -5.968413   -6.281432   19.831004
 H   -6.275937   -7.511496   21.065549
 H   -3.677144   -5.728337   20.796844
 H   -3.488758   -5.549355   22.545267
 H   -4.001101   -7.096357   21.870505
 H   -5.571633   -5.493446   24.061088
 H   -7.168227   -5.742455   23.341613
 H   -5.998375   -7.068173   23.404512
 H   -6.878739   -3.923821   21.775817
 H   -5.793393   -4.064624   20.415887
 H   -4.629804   -2.013331   24.003148
 H   -6.028259   -3.085026   23.970940
 H   -4.401734   -3.758640   24.051029
 H   -6.687477   -1.614086   22.025496
 H   -5.119809   -0.792603   21.952148
 H   -5.755224   -1.625499   20.525191
 H   -2.530616   -2.767497   23.412591
 H   -0.270603   -2.740969   22.458794
 H    0.318730   -2.997273   19.018618
 H   -1.911090   -3.127453   18.532676
 H   -4.165763   -3.151145   19.463623
