43 
4mgv_ligand_xtb.xyz
 O  -11.576629    3.964878   20.666548
 C  -11.108156    3.872045   21.788591
 C   -9.764682    3.220063   22.076912
 C   -9.352739    3.222792   23.549594
 C   -7.990050    2.538403   23.695339
 C   -8.081399    1.095751   23.201193
 C   -8.488528    1.091704   21.728724
 C   -9.848040    1.769207   21.576999
 C   -6.943045    3.292816   22.877681
 C   -7.351566    3.286112   21.405539
 C   -7.445527    1.845642   20.905654
 C   -8.707326    3.970858   21.252796
 N  -11.809845    4.329521   22.850344
 N  -13.024331    4.972206   22.626495
 C  -13.578025    5.709628   23.615490
 O  -13.066387    5.764885   24.721613
 C  -14.841992    6.407192   23.254796
 C  -15.686179    5.992062   22.227752
 C  -16.844326    6.719882   21.999928
 N  -17.189685    7.785399   22.700918
 C  -16.392811    8.172492   23.681711
 C  -15.213847    7.520451   24.004436
 H  -10.088164    2.682976   24.151522
 H   -9.275879    4.247500   23.922986
 H   -7.701319    2.544479   24.752456
 H   -8.815649    0.544194   23.792925
 H   -7.115273    0.601338   23.322142
 H   -8.560821    0.058801   21.371099
 H  -10.159451    1.770422   20.531091
 H  -10.602801    1.227494   22.152950
 H   -5.967549    2.816479   22.995916
 H   -6.858510    4.321098   23.236890
 H   -6.606300    3.830807   20.815714
 H   -7.727785    1.836588   19.850923
 H   -6.473706    1.355808   20.997985
 H   -8.643584    5.006846   21.596153
 H   -9.014071    3.982167   20.205569
 H  -11.489087    4.424679   23.805095
 H  -13.265986    4.992832   21.642137
 H  -15.471833    5.116829   21.634453
 H  -17.532820    6.434865   21.215275
 H  -16.719096    9.044067   24.233291
 H  -14.584298    7.849943   24.815874
