43 
4mgv_ligand_dft.xyz
 O   -0.121309   -0.287004   -1.567878
 C    0.400958   -0.576077   -0.508121
 C    1.861765   -0.267065   -0.203497
 C    2.358409   -0.744705    1.176199
 C    3.835707   -0.358144    1.366284
 C    4.686225   -1.009250    0.264716
 C    4.204964   -0.520115   -1.110262
 C    2.733639   -0.913801   -1.303814
 C    3.975040    1.170432    1.288663
 C    3.491140    1.659494   -0.085374
 C    4.341422    1.009119   -1.188728
 C    2.018445    1.271637   -0.280714
 N   -0.319386   -1.251067    0.465729
 N   -1.699977   -1.217870    0.370438
 C   -2.311318    0.001928    0.619495
 O   -1.720232    0.926113    1.140438
 C   -3.763298    0.068494    0.254946
 C   -4.587592   -1.052380    0.169488
 C   -5.923264   -0.867028   -0.176179
 N   -6.464483    0.323661   -0.435669
 C   -5.664806    1.389620   -0.341751
 C   -4.320530    1.319622    0.003841
 H    2.247059   -1.833855    1.267026
 H    1.768980   -0.275147    1.977134
 H    4.170446   -0.710633    2.348959
 H    4.608366   -2.102923    0.324439
 H    5.743501   -0.752289    0.409035
 H    4.807048   -0.985598   -1.899466
 H    2.367598   -0.587217   -2.282744
 H    2.626948   -2.006338   -1.262950
 H    5.022623    1.458429    1.444893
 H    3.387096    1.643660    2.085951
 H    3.583586    2.750373   -0.142444
 H    4.014463    1.365082   -2.174014
 H    5.394002    1.298384   -1.072099
 H    1.388818    1.740397    0.486660
 H    1.652863    1.615611   -1.253908
 H    0.009921   -1.235217    1.418653
 H   -2.050024   -1.761231   -0.407132
 H   -4.219542   -2.048232    0.395069
 H   -6.592779   -1.721541   -0.243663
 H   -6.126248    2.351338   -0.553082
 H   -3.706911    2.210312    0.078563
