43 
4mgv_ligand_aiqm1.xyz
 O  -12.047544    3.681833   21.136670
 C  -11.518105    3.384850   22.189167
 C  -10.057906    2.976413   22.286183
 C   -9.631228    2.468970   23.668193
 C   -8.139999    2.110532   23.653662
 C   -7.876418    1.032359   22.597155
 C   -8.285156    1.551066   21.213960
 C   -9.777906    1.891793   21.229150
 C   -7.330914    3.368231   23.314846
 C   -7.740889    3.893219   21.933968
 C   -7.480575    2.812025   20.878661
 C   -9.233664    4.239526   21.944891
 N  -12.256193    3.422376   23.371764
 N  -13.384095    4.235182   23.390796
 C  -13.168719    5.584350   23.172241
 O  -12.057240    6.075410   23.232175
 C  -14.397947    6.398927   22.934989
 C  -15.681883    5.958929   23.250049
 C  -16.754012    6.807182   22.992368
 N  -16.627858    8.022217   22.451650
 C  -15.388717    8.432371   22.159640
 C  -14.250714    7.668469   22.384702
 H  -10.230960    1.598524   23.956785
 H   -9.793059    3.251428   24.419663
 H   -7.854257    1.739698   24.642519
 H   -8.442445    0.126714   22.837457
 H   -6.815303    0.766366   22.598873
 H   -8.099428    0.780734   20.460303
 H  -10.101614    2.260530   20.253748
 H  -10.362399    0.994000   21.463127
 H   -6.262052    3.135543   23.323058
 H   -7.506621    4.137726   24.072786
 H   -7.165334    4.790889   21.694173
 H   -7.767978    3.182385   19.890433
 H   -6.412994    2.573865   20.844054
 H   -9.443436    5.015359   22.690658
 H   -9.548163    4.616447   20.968271
 H  -11.733614    3.479802   24.229726
 H  -14.167017    3.821196   22.907623
 H  -15.853135    4.993360   23.708578
 H  -17.763647    6.494824   23.231112
 H  -15.304254    9.422502   21.727617
 H  -13.263709    8.036075   22.144059
