62 
4mh7_ligand_ani-2x.xyz
 C   10.715727   17.458195   18.944272
 C   12.093199   17.953921   19.377839
 C   12.735245   18.888187   18.352155
 C   14.158409   19.294820   18.736313
 N   14.795430   20.153063   17.751469
 C   15.359930   19.647993   16.626579
 N   16.148925   20.474351   15.909141
 C   16.695894   19.921787   14.826420
 C   16.488132   18.613207   14.401986
 C   17.072680   18.031491   13.161439
 O   16.432947   17.238728   12.463795
 N   18.349992   18.384586   12.809543
 C   19.376908   18.818842   13.742020
 C   18.816673   17.946536   11.496739
 C   19.343645   16.510771   11.479531
 C   19.959844   16.119568   10.136597
 C   20.484182   14.686237   10.134702
 C   15.559152   17.872507   15.194124
 N   15.154489   16.636983   14.843457
 C   14.087882   15.962431   15.562157
 C   14.577264   15.338966   16.878449
 C   13.440386   14.602231   17.588429
 C   12.815429   13.535186   16.697390
 O   11.756163   12.938677   17.428982
 C   12.324552   14.151792   15.385602
 C   13.452076   14.895114   14.668658
 N   15.065874   18.380859   16.324614
 H   10.024813   18.294979   18.788410
 H   10.778665   16.906468   17.997349
 H   10.271853   16.791698   19.691579
 H   12.753826   17.088710   19.540775
 H   12.016582   18.465771   20.347282
 H   12.121983   19.790621   18.231206
 H   12.763827   18.387780   17.376348
 H   14.765150   18.388233   18.872045
 H   14.148416   19.834392   19.690214
 H   15.153435   21.054619   18.026594
 H   17.335693   20.585585   14.244309
 H   19.562159   19.899983   13.684736
 H   19.103153   18.557085   14.767104
 H   20.319478   18.314577   13.502040
 H   19.604917   18.640394   11.176521
 H   17.976774   18.044966   10.803829
 H   18.519863   15.829961   11.723348
 H   20.097848   16.394051   12.270181
 H   20.778212   16.812151    9.893956
 H   19.208067   16.238750    9.344320
 H   21.264638   14.551720   10.892673
 H   19.680626   13.974741   10.358255
 H   20.911152   14.415399    9.163527
 H   15.380440   16.353159   13.894854
 H   13.325496   16.713436   15.823011
 H   14.983441   16.128282   17.519591
 H   15.396639   14.640781   16.655514
 H   12.650628   15.316542   17.863364
 H   13.790110   14.141794   18.518986
 H   13.587699   12.782016   16.461969
 H   11.369434   12.253082   16.869933
 H   11.505489   14.847241   15.620180
 H   11.906044   13.372386   14.734928
 H   14.237002   14.179968   14.376599
 H   13.080520   15.357853   13.745168
