62 
4mh7_ligand_xtb.xyz
 C   10.621510   20.169980   18.423888
 C   11.765557   19.338985   18.991930
 C   13.101213   19.701494   18.349170
 C   14.249877   18.860549   18.915219
 N   15.515795   19.169818   18.303131
 C   15.935398   18.598933   17.156803
 N   17.069874   19.087785   16.636134
 C   17.484534   18.527518   15.514060
 C   16.810873   17.504830   14.863679
 C   17.282449   16.844783   13.633145
 O   17.196753   15.623334   13.499600
 N   17.807863   17.615890   12.647151
 C   17.699458   19.050968   12.570347
 C   18.402939   16.964636   11.497554
 C   19.908874   17.215187   11.406316
 C   20.534240   16.422852   10.261447
 C   22.033646   16.672727   10.156248
 C   15.672397   16.996376   15.559195
 N   14.976149   15.958532   15.068676
 C   13.901665   15.329260   15.799032
 C   14.434091   14.342602   16.845082
 C   13.283673   13.673153   17.585639
 C   12.356016   12.951071   16.610498
 O   11.308272   12.373728   17.364353
 C   11.825964   13.937982   15.565603
 C   12.976230   14.607812   14.821386
 N   15.238907   17.572025   16.678266
 H   10.794905   21.229511   18.599323
 H   10.531884   20.011751   17.351507
 H    9.679266   19.894820   18.891731
 H   11.563112   18.279135   18.824966
 H   11.828942   19.497821   20.070883
 H   13.311364   20.761322   18.513998
 H   13.048727   19.532824   17.271894
 H   14.055025   17.803329   18.725478
 H   14.337730   19.021820   19.993248
 H   15.997513   20.014059   18.567769
 H   18.425629   18.907594   15.137449
 H   16.932064   19.412168   13.251684
 H   18.644694   19.544219   12.811761
 H   17.420050   19.327730   11.550440
 H   17.908736   17.317220   10.584458
 H   18.214013   15.894446   11.607397
 H   20.372478   16.920694   12.350213
 H   20.099867   18.279755   11.253384
 H   20.051894   16.704319    9.322287
 H   20.353103   15.358068   10.420836
 H   22.234643   17.726893    9.976972
 H   22.533535   16.381151   11.077163
 H   22.460459   16.098379    9.337558
 H   15.466605   15.408299   14.370980
 H   13.359317   16.130451   16.311932
 H   15.069599   14.881418   17.548955
 H   15.044767   13.587661   16.344017
 H   12.697430   14.418124   18.125983
 H   13.661222   12.954214   18.313340
 H   12.922354   12.155345   16.096466
 H   10.680532   11.961566   16.761208
 H   11.223524   14.692437   16.076390
 H   11.179635   13.413634   14.855698
 H   13.551571   13.852283   14.280408
 H   12.584690   15.318932   14.091773
