55 
4mi3_ligand_xtb.xyz
 C    4.712754    1.973700    1.383528
 C    3.256454    1.556154    1.607305
 C    3.117889    0.761717    2.907058
 C    2.760982    0.773106    0.416431
 C    1.815166    1.315870   -0.446016
 C    1.378542    0.617117   -1.556967
 C    3.264471   -0.488376    0.121818
 C    2.829394   -1.187618   -0.988372
 C    1.873150   -0.649919   -1.841980
 C    1.387407   -1.416727   -3.038177
 C    0.165414   -2.319572   -2.742713
 C    0.483319   -3.418150   -1.731910
 C   -1.013591   -1.457478   -2.334435
 O   -1.877032   -1.124312   -3.130678
 N   -1.062173   -1.089999   -1.038991
 C   -1.969946   -0.090118   -0.517146
 O   -1.388718    0.293688    0.698481
 C   -2.121744    1.273522    1.419972
 C   -1.292299    1.618943    2.658205
 O   -0.068924    2.202612    2.311421
 C   -3.507300    0.734775    1.784486
 O   -4.215138    1.719456    2.485243
 C   -4.230595    0.348920    0.492278
 O   -5.479297   -0.202183    0.829660
 C   -3.396558   -0.642196   -0.334522
 O   -4.072388   -0.825804   -1.549483
 H    5.356179    1.100443    1.303227
 H    4.804990    2.552216    0.466851
 H    5.060657    2.583164    2.214221
 H    2.650573    2.463316    1.701233
 H    2.085606    0.457565    3.062113
 H    3.419607    1.378672    3.749833
 H    3.744081   -0.127110    2.894211
 H    1.427568    2.306919   -0.255624
 H    0.651543    1.065059   -2.219924
 H    4.014658   -0.931962    0.759180
 H    3.252137   -2.158745   -1.204476
 H    2.189057   -2.056387   -3.413510
 H    1.108157   -0.719336   -3.830693
 H   -0.125688   -2.786082   -3.689836
 H    1.213627   -4.102901   -2.157752
 H    0.897906   -3.015561   -0.810765
 H   -0.414487   -3.983450   -1.492776
 H   -0.299534   -1.305843   -0.416155
 H   -2.024209    0.766055   -1.219006
 H   -2.241836    2.177191    0.803526
 H   -1.137663    0.700611    3.241965
 H   -1.840511    2.343294    3.261098
 H    0.358507    1.621158    1.668570
 H   -3.390698   -0.170017    2.403687
 H   -5.141253    1.443367    2.496316
 H   -4.378374    1.257701   -0.115993
 H   -5.836242   -0.599140    0.025097
 H   -3.331181   -1.597503    0.215008
 H   -3.422915   -0.939820   -2.273826
