56 
4mi6_ligand_aiqm1.xyz
 C    1.915816   -0.708797    1.168518
 C    2.390733   -0.144888   -0.018852
 C    1.883787   -0.665009   -1.348282
 C    2.795432   -0.283347   -2.509882
 C    3.097962    1.208356   -2.458087
 C    3.903503    1.527026   -1.202337
 C    3.325438    0.900009    0.047218
 C    3.750371    1.335819    1.305689
 C    3.279894    0.752973    2.475433
 C    2.351481   -0.289781    2.424372
 C    1.811432   -0.931913    3.678254
 C    0.877892   -0.018400    4.490662
 C   -0.124578    0.748890    3.630879
 C   -0.932469   -0.146724    2.721733
 O   -1.188761   -1.317586    2.983234
 N   -1.391007    0.451412    1.590310
 C   -1.905112   -0.310505    0.460116
 O   -1.824841    0.602424   -0.616458
 C   -2.218366    0.041949   -1.876372
 C   -2.029693    1.135817   -2.905613
 O   -0.690211    1.583524   -2.967661
 C   -3.664120   -0.431179   -1.794515
 O   -3.989313   -1.020908   -3.036614
 C   -3.804270   -1.418200   -0.657128
 O   -5.156372   -1.834816   -0.616662
 C   -3.351654   -0.789013    0.651167
 O   -3.523983   -1.769628    1.648594
 H    1.190944   -1.516367    1.111685
 H    1.777344   -1.750835   -1.290052
 H    0.875310   -0.265368   -1.526984
 H    3.734809   -0.843468   -2.443769
 H    2.324194   -0.553696   -3.455880
 H    2.155993    1.767531   -2.457761
 H    3.656329    1.523091   -3.341982
 H    3.992000    2.606523   -1.058494
 H    4.925115    1.152049   -1.329302
 H    4.471921    2.143679    1.371073
 H    3.645208    1.104763    3.434000
 H    2.639001   -1.238595    4.320692
 H    1.267605   -1.835946    3.405048
 H    1.466403    0.710287    5.053049
 H    0.340240   -0.629410    5.217766
 H    0.398864    1.480591    3.011296
 H   -0.824675    1.301584    4.263354
 H   -1.044414    1.369200    1.358719
 H   -1.262977   -1.189405    0.289648
 H   -1.571169   -0.814335   -2.115240
 H   -2.282520    0.739977   -3.886811
 H   -2.711841    1.963077   -2.673261
 H   -0.475244    1.960388   -2.109567
 H   -4.314371    0.432390   -1.591783
 H   -4.825685   -1.479693   -2.920154
 H   -3.153926   -2.280498   -0.859606
 H   -5.262027   -2.367249    0.175462
 H   -3.976393    0.089624    0.869843
 H   -2.745229   -1.786899    2.228795
