56 
4mi6_ligand_ani-2x.xyz
 C    1.957401   -0.749800    1.228487
 C    2.391789   -0.140769    0.049718
 C    1.750154   -0.566561   -1.257710
 C    2.437201   -0.003247   -2.504229
 C    2.852330    1.451825   -2.295714
 C    3.853968    1.547991   -1.142533
 C    3.353434    0.872664    0.119026
 C    3.854528    1.236974    1.372372
 C    3.396398    0.636570    2.537076
 C    2.421154   -0.362944    2.482610
 C    1.800654   -0.944701    3.730770
 C    0.882458    0.048377    4.472764
 C   -0.057835    0.829836    3.549485
 C   -0.944431   -0.074804    2.713331
 O   -1.378113   -1.136601    3.163483
 N   -1.215276    0.363490    1.458665
 C   -1.771586   -0.444232    0.384291
 O   -1.642667    0.408099   -0.744430
 C   -2.145239   -0.130292   -1.971340
 C   -1.847641    0.901559   -3.057107
 O   -0.476800    1.238861   -3.079542
 C   -3.633281   -0.432789   -1.839507
 O   -4.071159   -1.014540   -3.046659
 C   -3.845307   -1.377540   -0.673548
 O   -5.232413   -1.587301   -0.529145
 C   -3.247888   -0.821463    0.609050
 O   -3.432857   -1.829324    1.568344
 H    1.216728   -1.548125    1.167109
 H    1.735138   -1.663678   -1.308525
 H    0.689113   -0.273996   -1.225232
 H    3.340843   -0.594758   -2.711027
 H    1.779131   -0.107261   -3.374150
 H    1.971158    2.068957   -2.069662
 H    3.294322    1.862539   -3.211416
 H    4.101391    2.595555   -0.929329
 H    4.798203    1.071774   -1.447722
 H    4.611050    2.017405    1.433281
 H    3.786572    0.956617    3.502760
 H    2.580153   -1.294312    4.420243
 H    1.209854   -1.822562    3.448728
 H    1.493878    0.768547    5.030276
 H    0.287523   -0.503599    5.207862
 H    0.519372    1.484241    2.884810
 H   -0.711531    1.479374    4.147133
 H   -0.704699    1.166127    1.119641
 H   -1.180689   -1.367575    0.230864
 H   -1.611060   -1.068522   -2.205009
 H   -2.112097    0.490383   -4.034117
 H   -2.467506    1.796613   -2.888322
 H   -0.237807    1.416693   -2.157715
 H   -4.169083    0.509610   -1.630427
 H   -4.987497   -1.289524   -2.902251
 H   -3.333605   -2.330201   -0.903468
 H   -5.342151   -2.144491    0.254979
 H   -3.788675    0.101578    0.883932
 H   -2.777201   -1.696248    2.286246
