56 
4mi6_ligand_xtb.xyz
 C    1.921154   -0.812325    0.853510
 C    2.403099   -0.188423   -0.290519
 C    2.282950   -0.878639   -1.619773
 C    3.305755   -0.351099   -2.619155
 C    3.179661    1.164693   -2.702121
 C    3.573588    1.787729   -1.366089
 C    2.989261    1.070481   -0.179605
 C    3.086975    1.652424    1.079502
 C    2.620854    1.013218    2.212347
 C    2.019421   -0.236120    2.113189
 C    1.521859   -0.991966    3.317645
 C    0.842060   -0.146772    4.399582
 C   -0.277602    0.758373    3.867261
 C   -1.282085   -0.043859    3.066271
 O   -2.171248   -0.686876    3.596758
 N   -1.069250    0.022382    1.737486
 C   -1.744616   -0.596874    0.619059
 O   -1.507647    0.321222   -0.421832
 C   -2.015654   -0.060265   -1.689077
 C   -1.609638    1.047265   -2.666405
 O   -0.224258    1.254265   -2.660142
 C   -3.534180   -0.235430   -1.626138
 O   -3.996718   -0.669253   -2.875255
 C   -3.865224   -1.251046   -0.530981
 O   -5.263304   -1.354699   -0.433552
 C   -3.253483   -0.843987    0.817628
 O   -3.526853   -1.896805    1.692793
 H    1.471115   -1.791955    0.758621
 H    2.399424   -1.956505   -1.483366
 H    1.280530   -0.702456   -2.022097
 H    4.313878   -0.621578   -2.295369
 H    3.130773   -0.800344   -3.597756
 H    2.148654    1.420319   -2.950786
 H    3.823932    1.559243   -3.490063
 H    3.277138    2.839510   -1.338370
 H    4.664485    1.761705   -1.264505
 H    3.553389    2.623584    1.172033
 H    2.740305    1.486450    3.175407
 H    2.372799   -1.504625    3.778634
 H    0.826748   -1.765951    2.983248
 H    1.578345    0.479079    4.906545
 H    0.418736   -0.826383    5.141308
 H    0.142876    1.555941    3.254738
 H   -0.800954    1.200053    4.716487
 H   -0.256556    0.536502    1.423616
 H   -1.269985   -1.570805    0.378669
 H   -1.560467   -1.013459   -1.999590
 H   -1.893476    0.755984   -3.677639
 H   -2.139642    1.969022   -2.391237
 H    0.038277    1.400045   -1.741732
 H   -3.997849    0.727784   -1.356473
 H   -4.904986   -0.973473   -2.746679
 H   -3.439377   -2.229679   -0.811438
 H   -5.449300   -1.851729    0.373692
 H   -3.718137    0.095899    1.158032
 H   -3.155754   -1.649292    2.571183
