43 
4mjp_ligand_aiqm1.xyz
 C   -1.441229   -1.667588   -0.130740
 C   -0.033000   -1.517155   -0.202669
 C    0.556990   -0.293534   -0.394307
 C    2.068212   -0.130189   -0.395896
 C    2.566380    0.502556    0.914205
 C    4.847839   -0.490588    0.541937
 C   -0.295457    0.850469   -0.559955
 C   -0.588182    3.239667   -0.967916
 C   -2.531089    1.848971   -0.662834
 O   -3.733886   -0.107869    2.197156
 C   -4.280027   -0.073725    1.127680
 O   -5.474157    0.537815    0.935689
 C   -3.784204   -0.732775   -0.144761
 C   -4.296804   -2.177346   -0.149189
 C   -2.277809   -0.592143   -0.256987
 C   -1.708703    0.700573   -0.492648
 C   -1.986172    3.087203   -0.896362
 C    0.231358    2.151166   -0.802971
 C    2.840074   -1.428305   -0.643675
 C    4.339132   -1.154022   -0.736607
 C    4.065280    0.786605    0.841550
 H   -1.839975   -2.658974    0.040735
 H    0.574063   -2.404712   -0.088377
 H    2.331813    0.553085   -1.213574
 H    2.006200    1.413048    1.135511
 H    2.368015   -0.196989    1.733014
 H    5.915776   -0.276563    0.463012
 H    4.722158   -1.187427    1.377287
 H   -0.158561    4.214886   -1.154352
 H   -3.607479    1.752958   -0.621367
 H   -5.739248    0.895082    1.792366
 H   -4.257630   -0.216007   -0.980520
 H   -3.954740   -2.721615    0.732183
 H   -5.386987   -2.181651   -0.154428
 H   -3.948064   -2.698580   -1.038763
 H   -2.632026    3.945631   -1.027788
 H    1.300328    2.292829   -0.863072
 H    2.483318   -1.925340   -1.550276
 H    2.661500   -2.112625    0.192371
 H    4.534014   -0.495255   -1.589772
 H    4.879072   -2.084250   -0.924034
 H    4.253338    1.520217    0.048988
 H    4.410071    1.232565    1.776456
