43 
4mjp_ligand_ani-2x.xyz
 C   -1.463547   -1.595653    0.031895
 C   -0.063845   -1.461409   -0.045457
 C    0.536014   -0.267215   -0.351524
 C    2.044963   -0.119408   -0.375137
 C    2.581257    0.563895    0.900793
 C    4.851044   -0.485076    0.531661
 C   -0.315596    0.877621   -0.591297
 C   -0.590626    3.249492   -1.114843
 C   -2.531714    1.909161   -0.663199
 O   -4.051622   -0.936385    2.280086
 C   -4.319321   -0.348891    1.260827
 O   -5.146850    0.718313    1.241264
 C   -3.811959   -0.729405   -0.126214
 C   -4.278690   -2.170792   -0.407251
 C   -2.308998   -0.541192   -0.197577
 C   -1.728532    0.746542   -0.485238
 C   -1.981563    3.125794   -0.973582
 C    0.214949    2.158138   -0.924857
 C    2.806324   -1.440758   -0.582566
 C    4.309410   -1.195782   -0.711659
 C    4.087142    0.813180    0.808006
 H   -1.862942   -2.581401    0.253237
 H    0.533695   -2.351658    0.127830
 H    2.309770    0.518094   -1.234947
 H    2.037634    1.497847    1.087275
 H    2.366121   -0.088259    1.759796
 H    5.924477   -0.285388    0.426650
 H    4.739927   -1.154777    1.397088
 H   -0.152201    4.211409   -1.368380
 H   -3.609609    1.845318   -0.545919
 H   -5.403602    0.876773    2.165484
 H   -4.300279   -0.079174   -0.858051
 H   -4.024900   -2.833826    0.425816
 H   -5.366038   -2.193298   -0.528389
 H   -3.827108   -2.556134   -1.326809
 H   -2.621261    3.992559   -1.117940
 H    1.288937    2.285473   -1.024088
 H    2.420868   -1.961522   -1.468069
 H    2.634339   -2.102406    0.279771
 H    4.499348   -0.576923   -1.600805
 H    4.838156   -2.143191   -0.872390
 H    4.284491    1.527934   -0.004883
 H    4.451434    1.282484    1.729893
