24 
4mk2_ligand_xtb.xyz
 O    9.101688   19.745411   -8.378108
 C    9.636310   20.430197   -9.243027
 C   10.055896   21.804144   -8.997629
 O    9.807208   22.262549   -7.757447
 C   10.651203   22.544544   -9.968762
 C   10.869998   21.986797  -11.260256
 C   11.518714   22.781384  -12.312188
 C   12.576836   23.636904  -12.004240
 C   13.195354   24.385185  -12.990562
 C   12.773431   24.298918  -14.303888
 C   11.715451   23.447649  -14.623059
 C   11.269152   23.346296  -15.961988
 N   10.908865   23.258407  -17.046479
 C   11.090930   22.693878  -13.632304
 C   10.471259   20.703366  -11.489345
 N    9.882348   19.967546  -10.508181
 H    9.376862   21.528882   -7.276999
 H   10.933464   23.564549   -9.763219
 H   12.928676   23.700173  -10.985823
 H   14.015080   25.038945  -12.733149
 H   13.248760   24.879067  -15.080382
 H   10.259145   22.057596  -13.896251
 H   10.624105   20.205621  -12.433660
 H    9.602965   19.012193  -10.695255
