24 
4mk2_ligand_aiqm1.xyz
 O    9.104531   19.745200   -8.347388
 C    9.633205   20.420499   -9.227042
 C   10.044025   21.798689   -8.984166
 O    9.789959   22.243114   -7.741549
 C   10.633864   22.546901   -9.950679
 C   10.866178   21.987480  -11.258043
 C   11.521371   22.782805  -12.315744
 C   12.585989   23.640026  -12.005296
 C   13.212627   24.390552  -12.997637
 C   12.786844   24.303521  -14.318567
 C   11.723111   23.454860  -14.636211
 C   11.266543   23.354458  -15.997247
 N   10.900017   23.272358  -17.094219
 C   11.094784   22.699222  -13.643713
 C   10.473073   20.704464  -11.481938
 N    9.879927   19.960364  -10.486870
 H    9.371112   21.492738   -7.290299
 H   10.916073   23.571521   -9.738272
 H   12.932367   23.709846  -10.982227
 H   14.034758   25.043503  -12.740653
 H   13.260579   24.879994  -15.099894
 H   10.261518   22.064104  -13.914909
 H   10.619832   20.206361  -12.426602
 H    9.601413   19.007618  -10.663035
