27 
4mk5_ligand_ani-2x.xyz
 O    9.950310   22.369355   -7.710183
 C   10.134641   21.913146   -8.970074
 C   10.636775   22.715660   -9.974950
 C   10.790300   22.177367  -11.255805
 C   10.437136   20.852956  -11.494762
 C   10.551642   20.216418  -12.830522
 C   10.540779   20.980559  -13.992970
 C   10.655233   20.372551  -15.243592
 O   10.633453   21.214262  -16.311407
 C   10.751922   20.640418  -17.593820
 C   10.784483   18.987692  -15.337888
 C   10.785770   18.226960  -14.169390
 C   10.664388   18.823576  -12.925989
 N    9.983324   20.060004  -10.502998
 C    9.829502   20.583651   -9.313539
 O    9.350850   19.807662   -8.304771
 H    9.599182   21.636111   -7.181231
 H   10.900928   23.748168   -9.764693
 H   11.205304   22.796837  -12.044051
 H   10.424668   22.061181  -13.969948
 H   11.705332   20.108325  -17.709921
 H    9.926624   19.946778  -17.801950
 H   10.713049   21.470733  -18.300335
 H   10.879654   18.495727  -16.299122
 H   10.879368   17.145519  -14.239295
 H   10.652616   18.228174  -12.018934
 H    9.190767   18.927510   -8.678463
