27 
4mk5_ligand_aiqm1.xyz
 O    9.996027   22.382328   -7.709403
 C   10.151324   21.908369   -8.970694
 C   10.689191   22.688494   -9.975513
 C   10.819996   22.141404  -11.255419
 C   10.410986   20.833268  -11.497093
 C   10.540606   20.199650  -12.828010
 C   10.501266   20.968751  -13.988546
 C   10.643967   20.371884  -15.243665
 O   10.587424   21.224497  -16.304990
 C   10.717510   20.649678  -17.592543
 C   10.829919   18.992598  -15.345673
 C   10.858494   18.228063  -14.174683
 C   10.714201   18.813448  -12.928516
 N    9.898438   20.071793  -10.506222
 C    9.778030   20.601116   -9.311172
 O    9.258604   19.847355   -8.304281
 H    9.608871   21.679463   -7.177111
 H   11.001367   23.701717   -9.755981
 H   11.255168   22.731895  -12.047565
 H   10.337391   22.038202  -13.958173
 H   11.686373   20.158488  -17.711079
 H    9.919857   19.928797  -17.786647
 H   10.640642   21.473238  -18.296200
 H   10.944325   18.509653  -16.305381
 H   10.994654   17.156695  -14.252054
 H   10.729526   18.216290  -12.028015
 H    9.043845   18.990168   -8.685970
