38 
4mk7_ligand_xtb.xyz
 C  -10.484374    9.173185   19.359763
 C  -10.287050    8.765286   18.048264
 C   -9.138404    9.134774   17.377196
 C   -8.158315    9.906966   17.989512
 C   -8.328811   10.327623   19.325228
 C   -9.492505    9.945397   19.968011
 C   -7.268157   11.165066   20.030864
 C   -7.652372   11.512047   21.473708
 C   -5.948843   10.382338   20.077942
 C   -7.074439   12.485891   19.273166
 O   -7.012775   10.280591   17.341913
 C   -6.794761    9.844351   16.024006
 C  -11.697788    8.814600   20.099755
 C  -12.283778    7.497846   19.891535
 O  -11.884788    6.620360   19.145768
 N  -13.416968    7.248668   20.659371
 C  -13.985441    8.114423   21.529741
 C  -13.441646    9.343596   21.710296
 C  -12.282937    9.682702   20.978894
 H  -11.027215    8.163001   17.548522
 H   -9.014984    8.808129   16.357087
 H   -9.644871   10.225210   20.996574
 H   -7.772753   10.615955   22.078140
 H   -6.858638   12.109454   21.918117
 H   -8.568822   12.096816   21.509784
 H   -5.192923   10.957969   20.608164
 H   -6.093114    9.437530   20.598317
 H   -5.585267   10.176159   19.077377
 H   -8.014150   13.033174   19.227849
 H   -6.338786   13.103557   19.784178
 H   -6.728757   12.304706   18.261541
 H   -6.764851    8.752060   15.958284
 H   -7.555253   10.230738   15.337476
 H   -5.822081   10.246497   15.741430
 H  -13.820261    6.329489   20.523184
 H  -14.869485    7.775850   22.048624
 H  -13.883976   10.048699   22.393123
 H  -11.861362   10.668593   21.109996
