49 
4mr4_ligand_xtb.xyz
 O   27.714977   15.642966    0.146025
 C   27.043475   14.529972   -0.395784
 C   29.002047   15.863435   -0.225591
 C   29.596983   16.990047    0.358697
 C   30.903655   17.339036    0.072615
 N   33.577015   15.943090   -2.081251
 C   30.841376   19.236565    1.495763
 O   31.533713   18.404152    0.598370
 C   31.650813   16.540524   -0.827809
 O   35.547266   11.443631   -6.215229
 N   31.701931   14.587304   -2.278096
 C   33.023526   16.860991   -1.182388
 C   32.924360   14.858506   -2.584826
 O   34.608845    9.110255   -7.802875
 O   33.703200   17.791276   -0.807355
 C   33.636219   13.974633   -3.513745
 C   35.025710   13.903097   -3.560621
 C   35.666198   13.051070   -4.445701
 C   37.163504   12.973327   -4.473487
 C   34.898964   12.258252   -5.304829
 C   35.603861   10.074403   -5.861564
 C   35.837201    9.255993   -7.126960
 C   33.501728   12.321648   -5.280378
 C   32.667493   11.499081   -6.214935
 C   32.891885   13.176217   -4.377163
 C   31.041544   15.408785   -1.406696
 C   29.718688   15.074839   -1.103305
 H   26.971945   14.597997   -1.485506
 H   27.537705   13.592884   -0.122230
 H   26.043551   14.551099    0.034691
 H   28.989435   17.565529    1.036592
 H   34.523141   16.149464   -2.376669
 H   29.964732   19.693955    1.025724
 H   30.530087   18.690821    2.392443
 H   31.550055   20.014767    1.773725
 H   34.763089    8.701069   -8.660112
 H   35.635112   14.485629   -2.883927
 H   37.602329   13.954260   -4.306642
 H   37.519516   12.306247   -3.687595
 H   37.501208   12.588918   -5.432011
 H   34.668410    9.749615   -5.393852
 H   36.431408    9.906282   -5.156314
 H   36.569459    9.782976   -7.751124
 H   36.242617    8.272382   -6.849184
 H   33.276448   11.056364   -6.997915
 H   32.167840   10.698415   -5.669545
 H   31.898607   12.119919   -6.670020
 H   31.816347   13.243545   -4.335160
 H   29.308083   14.199169   -1.575251
