49 
4mr6_ligand_dft.xyz
 O   -5.490824    2.552734    0.410398
 C   -4.948884    3.852907    0.508701
 C   -4.632520    1.518790    0.262292
 C   -5.246857    0.257730    0.175260
 C   -4.477319   -0.882550    0.021572
 N   -0.835001   -1.601013   -0.272761
 C   -6.402739   -2.258597   -0.003065
 O   -5.001548   -2.116196   -0.065749
 C   -3.059625   -0.783089   -0.048944
 O    5.235471    0.408962   -0.454033
 N   -1.097570    0.700202   -0.001693
 C   -2.196644   -1.947801   -0.236924
 C   -0.336669   -0.334369   -0.152532
 O    7.627468   -0.843324    0.537089
 O   -2.503934   -3.116991   -0.371516
 C    1.135183   -0.167004   -0.206404
 C    2.010096   -1.193294    0.148451
 C    3.392717   -1.021624    0.090300
 C    4.330173   -2.135062    0.480787
 C    3.880140    0.218021   -0.335628
 C    5.899837    0.766711    0.748005
 C    7.382155    0.546969    0.556237
 C    3.026143    1.268105   -0.699372
 C    3.601210    2.577680   -1.171326
 C    1.655042    1.059602   -0.625462
 C   -2.467640    0.495389    0.043580
 C   -3.256569    1.646112    0.199336
 H   -4.292765    3.946927    1.382587
 H   -4.388599    4.121356   -0.395233
 H   -5.800695    4.524513    0.620441
 H   -6.326578    0.222352    0.234381
 H   -0.220441   -2.378699   -0.471631
 H   -6.800740   -1.898258    0.953966
 H   -6.897527   -1.726940   -0.825616
 H   -6.593026   -3.327930   -0.095715
 H    8.509369   -0.993290    0.180904
 H    1.630649   -2.145782    0.512402
 H    4.449659   -2.184157    1.570049
 H    3.939865   -3.103129    0.151740
 H    5.322715   -1.985849    0.050539
 H    5.545790    0.150750    1.584433
 H    5.705764    1.821846    0.989233
 H    7.687920    1.029229   -0.383018
 H    7.918237    1.037616    1.383874
 H    4.112911    3.105608   -0.358239
 H    4.337235    2.419060   -1.964925
 H    2.813132    3.233813   -1.550137
 H    0.963038    1.850892   -0.895328
 H   -2.744363    2.596519    0.267761
