32 
4mra_ligand_xtb.xyz
 C    7.951941   23.709940   29.717395
 C    7.820993   25.079618   29.859424
 C    7.202984   25.599873   31.026219
 C    6.735902   24.722172   32.014189
 C    6.874886   23.347743   31.856802
 C    7.481585   22.850985   30.710222
 C    7.043409   27.011940   31.220759
 C    6.394419   27.420199   32.457500
 C    5.966118   26.498197   33.373237
 C    5.305541   26.773230   34.643835
 C    5.028263   28.070182   35.077411
 C    4.400959   28.289152   36.287474
 C    4.031665   27.227201   37.100357
 C    4.307345   25.919286   36.670801
 C    4.932939   25.699908   35.464092
 O    6.143337   25.168083   33.137368
 O    7.416015   27.891486   30.417721
 O    3.922018   24.902192   37.511179
 O    3.417642   27.447055   38.284438
 O    6.268967   28.759726   32.591304
 O    7.639206   21.524822   30.512311
 O    8.269808   25.899819   28.912066
 H    8.418583   23.301063   28.837735
 H    6.509432   22.686364   32.627668
 H    5.303861   28.910736   34.466708
 H    4.185363   29.289616   36.625288
 H    5.138142   24.687813   35.147553
 H    4.158993   24.055313   37.118957
 H    3.243515   26.589542   38.697831
 H    6.671139   29.125780   31.773259
 H    7.279532   21.028263   31.258017
 H    8.083299   26.829601   29.199681
