19 
4mre_ligand_xtb.xyz
 C   12.451981   -5.014882    0.759275
 C   11.678718   -4.475912   -0.411305
 C   12.301600   -3.660232   -1.347303
 C   11.607146   -3.166170   -2.434169
 C   10.262832   -3.458211   -2.581837
 C    9.611138   -4.256541   -1.654515
 N    8.260211   -4.596942   -1.809876
 C   10.330641   -4.797078   -0.574560
 N    9.645321   -5.593333    0.351112
 H   13.471874   -4.639951    0.740622
 H   11.991847   -4.712046    1.699907
 H   12.493498   -6.105718    0.733836
 H   13.347081   -3.418593   -1.222131
 H   12.105653   -2.542533   -3.160868
 H    9.706326   -3.062447   -3.420213
 H    7.797123   -4.039624   -2.514319
 H    7.744830   -4.593447   -0.940227
 H   10.255250   -6.137932    0.942234
 H    8.934129   -6.168007   -0.079261
