19 
4mre_ligand_aiqm1.xyz
 C   12.438942   -5.001656    0.782071
 C   11.666528   -4.435650   -0.380807
 C   12.247261   -3.488781   -1.228828
 C   11.540578   -2.962322   -2.303299
 C   10.227286   -3.363235   -2.528793
 C    9.623977   -4.295093   -1.690845
 N    8.308411   -4.762081   -1.905831
 C   10.353361   -4.851548   -0.626572
 N    9.687112   -5.772761    0.210280
 H   12.568809   -6.085413    0.694549
 H   13.431243   -4.554680    0.831890
 H   11.934681   -4.809710    1.731935
 H   13.265228   -3.170632   -1.040338
 H   12.002019   -2.237513   -2.959037
 H    9.663326   -2.952137   -3.359357
 H    7.813108   -4.198553   -2.581429
 H    7.782722   -4.787990   -1.041053
 H   10.318431   -6.292006    0.802268
 H    9.124178   -6.417840   -0.330404
