19 
4mre_ligand_ani-2x.xyz
 C   12.434229   -4.989077    0.792369
 C   11.668677   -4.428428   -0.379423
 C   12.249490   -3.493986   -1.234650
 C   11.541282   -2.972392   -2.312591
 C   10.229938   -3.374844   -2.543321
 C    9.626587   -4.296118   -1.695130
 N    8.307711   -4.755541   -1.880168
 C   10.357568   -4.848754   -0.628395
 N    9.692427   -5.781249    0.188596
 H   12.578565   -6.073845    0.703642
 H   13.424795   -4.530521    0.860170
 H   11.914521   -4.801818    1.740258
 H   13.273073   -3.173719   -1.048591
 H   12.007568   -2.247248   -2.974398
 H    9.667476   -2.968109   -3.382787
 H    7.804375   -4.227522   -2.581245
 H    7.786381   -4.757818   -1.009483
 H   10.300522   -6.289641    0.816208
 H    9.132014   -6.428969   -0.354660
