17 
4msa_ligand_xtb.xyz
 O    4.045792  -28.127647  -29.559294
 N    4.438386  -28.745489  -30.527694
 O    5.018777  -29.808750  -30.473006
 C    4.198890  -28.177878  -31.828745
 C    3.528454  -26.948245  -31.904979
 C    3.272364  -26.358922  -33.121435
 C    3.705749  -27.034615  -34.255078
 N    3.627216  -26.756947  -35.589496
 C    4.233559  -27.796611  -36.239408
 N    4.690044  -28.708468  -35.446657
 C    4.385563  -28.281233  -34.179660
 C    4.638301  -28.865896  -32.948747
 H    3.219667  -26.478220  -30.984269
 H    2.757390  -25.413498  -33.189110
 H    3.204911  -25.945607  -36.009504
 H    4.312973  -27.833510  -37.308590
 H    5.150965  -29.809463  -32.857330
