36 
4msc_ligand_ani-2x.xyz
 C    3.868643   19.898560   37.135505
 C    3.703573   20.598784   35.970709
 C    3.229902   19.951420   34.801033
 C    2.932053   18.614529   34.825157
 C    3.094064   17.864087   36.019125
 C    2.806224   16.479094   36.116480
 C    2.991970   15.832611   37.306269
 C    3.470114   16.580509   38.413985
 C    3.679816   15.920926   39.753961
 O    3.571632   14.518157   39.610973
 C    3.771255   13.767762   40.727055
 C    4.035128   14.286365   41.968156
 C    4.224984   13.417129   43.075281
 N    4.484833   13.979513   44.288721
 C    4.659971   13.175018   45.309048
 C    4.596885   11.761520   45.232483
 C    4.336620   11.185146   44.018974
 C    4.140558   12.015554   42.888974
 C    3.865396   11.513669   41.588184
 C    3.684148   12.359936   40.531274
 N    3.746248   17.859266   38.368711
 C    3.566924   18.512155   37.186467
 H    4.229498   20.366749   38.046149
 H    3.935687   21.660403   35.935322
 H    3.106089   20.526382   33.887086
 H    2.567998   18.106986   33.933998
 H    2.440930   15.945979   35.240121
 H    2.788396   14.773831   37.425932
 H    2.928126   16.290721   40.463182
 H    4.670405   16.200511   40.130736
 H    4.110485   15.349252   42.166586
 H    4.866341   13.650831   46.268080
 H    4.753943   11.164096   46.126233
 H    4.277900   10.104158   43.907611
 H    3.800771   10.436737   41.446895
 H    3.472892   11.988756   39.532744
