19 
4msn_ligand_xtb.xyz
 C    3.802351  -27.717338  -34.944922
 C    4.289198  -28.756054  -34.100205
 C    3.967041  -27.874420  -36.344425
 C    4.894702  -29.894190  -34.667991
 C    4.535716  -29.008693  -36.869751
 C    5.004867  -30.022698  -36.026726
 C    3.033822  -26.513220  -33.172047
 C    3.514906  -27.452502  -32.240283
 N    3.167811  -26.638939  -34.460359
 C    4.130409  -28.580893  -32.708252
 N    3.550280  -26.832515  -37.254308
 O    3.119702  -27.196979  -38.329706
 O    3.683698  -25.683927  -36.910667
 H    5.269275  -30.664680  -34.009606
 H    4.629663  -29.098705  -37.941857
 H    5.461450  -30.899471  -36.458837
 H    2.510701  -25.626492  -32.839914
 H    3.379234  -27.282665  -31.183721
 H    4.492472  -29.345918  -32.035823
