19 
4msn_ligand_ani-2x.xyz
 C    3.790155  -27.711284  -34.941083
 C    4.299918  -28.738328  -34.093052
 C    3.965550  -27.874110  -36.345707
 C    4.906272  -29.883810  -34.664929
 C    4.507278  -29.013831  -36.877765
 C    4.995101  -30.024825  -36.025610
 C    2.994974  -26.531630  -33.145028
 C    3.506128  -27.466711  -32.212756
 N    3.122286  -26.641861  -34.442895
 C    4.154722  -28.568021  -32.693422
 N    3.589405  -26.818197  -37.302308
 O    3.127779  -27.192148  -38.370623
 O    3.798933  -25.660303  -37.004782
 H    5.286319  -30.656347  -33.999671
 H    4.565511  -29.115107  -37.955873
 H    5.441671  -30.913759  -36.463052
 H    2.461491  -25.652034  -32.789697
 H    3.368553  -27.302318  -31.147674
 H    4.555256  -29.325678  -32.023475
