19 
4msn_ligand_aiqm1.xyz
 C    3.809883  -27.715141  -34.938054
 C    4.296278  -28.746533  -34.097594
 C    3.981074  -27.880406  -36.337510
 C    4.916280  -29.889628  -34.664939
 C    4.547885  -28.997921  -36.878275
 C    5.031670  -30.018175  -36.025817
 C    3.014262  -26.511180  -33.162014
 C    3.483355  -27.471231  -32.228791
 N    3.163935  -26.616773  -34.460723
 C    4.120105  -28.587228  -32.700645
 N    3.549472  -26.826552  -37.277424
 O    2.850154  -27.193618  -38.210289
 O    3.951763  -25.693571  -37.095540
 H    5.289281  -30.663805  -34.004553
 H    4.631880  -29.085444  -37.953138
 H    5.492384  -30.895907  -36.458191
 H    2.494869  -25.628108  -32.806423
 H    3.327823  -27.314842  -31.170822
 H    4.484947  -29.354239  -32.028658
