51 
4mx0_ligand_xtb.xyz
 C    1.612715   -0.873041    0.685058
 N    2.611074    0.144763    0.934516
 C    2.337187    1.348235    1.502929
 N    3.375297    2.258880    1.410601
 N    1.209081    1.594431    2.052276
 C    0.602571   -0.469195   -0.422126
 C   -0.863300   -0.537368    0.047544
 C   -1.848640    0.082269   -0.973182
 C   -3.272831    0.003694   -0.404147
 C   -4.353828    0.081745   -1.475882
 C   -1.496390    1.496516   -1.461622
 C   -1.308128    2.554831   -0.379796
 N   -0.995748    0.041357    1.364206
 C   -1.599821   -0.624127    2.368840
 C   -1.495778    0.097199    3.698899
 O   -2.196883   -1.675608    2.227811
 C    0.875117   -1.390087   -1.636004
 O   -0.114872   -2.377374   -1.742449
 C    2.258374   -2.045744   -1.351440
 C    3.369929   -1.237095   -1.964770
 O    4.140077   -0.509253   -1.389839
 O    3.417556   -1.408798   -3.288912
 C    2.302524   -2.139777    0.172958
 H    1.095485   -1.054415    1.629655
 H    3.385721    0.133175    0.282325
 H    4.291265    1.898339    1.197207
 H    3.366817    3.020252    2.069993
 H    1.159392    2.508354    2.489315
 H    0.830966    0.559270   -0.706604
 H   -1.144050   -1.593220    0.148322
 H   -1.814505   -0.571775   -1.851135
 H   -3.424374    0.800800    0.323978
 H   -3.376867   -0.942215    0.128065
 H   -4.340462    1.040100   -1.990413
 H   -4.215806   -0.705997   -2.213661
 H   -5.335485   -0.042548   -1.024484
 H   -2.301343    1.819471   -2.125279
 H   -0.592120    1.451752   -2.074494
 H   -0.408796    2.374968    0.201487
 H   -2.155444    2.571793    0.298911
 H   -1.223980    3.537875   -0.841232
 H   -0.333395    0.781997    1.613758
 H   -1.798559   -0.570006    4.500549
 H   -2.158547    0.959694    3.689333
 H   -0.478408    0.443177    3.859597
 H    0.910828   -0.804249   -2.566837
 H    0.032009   -2.891099   -2.543795
 H    2.289231   -3.030401   -1.826419
 H    4.126864   -0.874374   -3.681414
 H    1.729766   -3.012250    0.482510
 H    3.318515   -2.224624    0.555295
