51 
4mx0_ligand_dft.xyz
 C   -1.166202    0.727053   -0.922678
 N   -1.948856    1.630254   -0.084808
 C   -1.411542    2.544629    0.773221
 N   -2.372670    3.151620    1.579613
 N   -0.143483    2.782445    0.829061
 C   -0.379237   -0.362065   -0.122096
 C    1.143645   -0.409059   -0.384432
 C    1.884354   -1.376754    0.577780
 C    3.394392   -1.335656    0.291308
 C    4.198313   -2.424072    1.002514
 C    1.548607   -1.214965    2.072984
 C    1.848475    0.150383    2.696197
 N    1.695666    0.933312   -0.394732
 C    2.474662    1.367577   -1.421458
 C    2.814224    2.847635   -1.361444
 O    2.908902    0.641243   -2.307366
 C   -1.058620   -1.723225   -0.433919
 O   -0.307645   -2.421810   -1.409365
 C   -2.440908   -1.358745   -1.046065
 C   -3.526576   -1.245586   -0.002494
 O   -4.100563   -0.238849    0.358224
 O   -3.824874   -2.445916    0.521452
 C   -2.137677   -0.067912   -1.812717
 H   -0.485590    1.335468   -1.521704
 H   -2.856899    1.262551    0.178713
 H   -3.282498    3.267259    1.153522
 H   -2.061963    3.991970    2.045236
 H    0.063394    3.537058    1.477647
 H   -0.548035   -0.144627    0.937722
 H    1.304433   -0.800564   -1.392122
 H    1.539295   -2.380801    0.292787
 H    3.794318   -0.350653    0.558377
 H    3.535688   -1.423493   -0.791086
 H    4.236703   -2.268954    2.086392
 H    3.766987   -3.416775    0.823162
 H    5.231351   -2.439987    0.639470
 H    2.097807   -1.987004    2.625330
 H    0.489255   -1.453978    2.237744
 H    1.194956    0.933047    2.297175
 H    2.882972    0.456894    2.510438
 H    1.699971    0.113782    3.781241
 H    1.208263    1.641127    0.161390
 H    2.950377    3.218850   -2.378959
 H    3.760246    2.978228   -0.824978
 H    2.041075    3.429041   -0.850244
 H   -1.157134   -2.332663    0.473210
 H   -0.625215   -3.331571   -1.433757
 H   -2.750771   -2.173154   -1.709538
 H   -4.514923   -2.296531    1.188032
 H   -1.621874   -0.347445   -2.734948
 H   -3.028798    0.506740   -2.077948
