43 
4mx1_ligand_ani-2x.xyz
 C  -24.709138    8.672514   -8.259119
 N  -25.514072    7.597296   -7.953491
 O  -21.204537    9.007858   -8.699296
 C  -22.367758    9.332365   -8.639529
 N  -23.368310    8.382020   -8.378808
 O  -25.367618   14.967973   -8.336498
 C  -22.939364   10.688187   -8.810749
 N  -25.212919    9.854724   -8.371662
 O  -25.610145   14.107494  -14.722486
 C  -24.331025   10.887794   -8.644853
 N  -24.854844   12.116178   -8.747457
 C  -24.027412   13.107561   -9.054488
 N  -22.116105   11.699254   -9.111577
 C  -22.655948   12.894876   -9.249863
 N  -24.352914   15.084017  -10.370729
 C  -24.645378   14.478368   -9.183134
 N  -25.468339   15.620867  -13.044340
 C  -24.912326   16.368271  -10.742694
 N  -26.175112   13.450758  -12.586256
 C  -25.976352   16.239536  -11.832527
 C  -25.754097   14.361341  -13.536007
 C  -26.459482   12.083693  -12.784496
 C  -26.519927   11.272221  -11.646607
 C  -26.812601    9.918279  -11.768581
 C  -27.060381    9.365448  -13.019780
 C  -27.007632   10.181107  -14.145047
 C  -26.708577   11.535107  -14.040880
 H  -26.496448    7.820755   -8.043552
 H  -25.265742    6.719278   -8.386871
 H  -23.022223    7.451361   -8.177517
 H  -21.982967   13.714592   -9.491602
 H  -23.735311   14.629833  -11.027940
 H  -25.213278   16.242164  -13.797348
 H  -25.353691   16.788262   -9.836928
 H  -24.103962   17.025002  -11.080051
 H  -26.035722   13.701222  -11.615940
 H  -26.354861   17.236904  -12.083052
 H  -26.828105   15.664580  -11.450393
 H  -26.331113   11.702076  -10.663983
 H  -26.845291    9.298924  -10.875142
 H  -27.293279    8.309081  -13.123576
 H  -27.197990    9.759952  -15.129554
 H  -26.657703   12.165908  -14.918596
