29 
4myd_ligand_ani-2x.xyz
 O   -1.359418    1.053409   -2.772712
 C   -1.968762    1.226730   -1.746724
 O   -3.132743    1.908002   -1.707820
 C   -1.530930    0.754694   -0.357644
 C   -2.708826    0.210539    0.484209
 C   -3.086512   -1.136336   -0.003107
 C   -2.124945   -1.997534   -0.455474
 C   -0.785530   -1.572714   -0.640019
 O   -2.369157    0.195175    1.877056
 C   -0.455460   -0.260186   -0.480880
 C    0.935088    0.240042   -0.540354
 O    1.164562    1.423730   -0.364861
 C    2.093204   -0.719299   -0.804815
 C    3.425764    0.012201   -0.773070
 C    3.759648    0.483523    0.620628
 O    3.400834   -0.053293    1.641707
 O    4.557632    1.566380    0.613768
 H   -3.313389    2.176405   -2.623536
 H   -1.127713    1.645864    0.145864
 H   -3.556056    0.899494    0.420556
 H   -4.101882   -1.478420    0.162539
 H   -2.380799   -3.036981   -0.639674
 H   -0.020742   -2.300306   -0.900624
 H   -1.736832   -0.526542    2.010365
 H    1.949305   -1.204813   -1.778513
 H    2.089038   -1.503794   -0.038022
 H    3.429381    0.869536   -1.449777
 H    4.236621   -0.660083   -1.082998
 H    4.718519    1.784578    1.546532
