29 
4myd_ligand_xtb.xyz
 O   -1.513553    0.677636   -2.713747
 C   -1.904273    1.165664   -1.688787
 O   -2.758289    2.191398   -1.654672
 C   -1.519649    0.709015   -0.291070
 C   -2.758850    0.160675    0.446518
 C   -3.069116   -1.237686   -0.020945
 C   -2.097834   -2.052344   -0.441002
 C   -0.726467   -1.608814   -0.520702
 O   -2.592166    0.180367    1.847184
 C   -0.412826   -0.305628   -0.410787
 C    0.949488    0.255534   -0.489367
 O    1.158745    1.426780   -0.253526
 C    2.068588   -0.688558   -0.884703
 C    3.406299    0.042011   -0.844195
 C    3.695022    0.499790    0.567123
 O    3.282456   -0.029501    1.564317
 O    4.505736    1.559390    0.591497
 H   -2.983798    2.476815   -2.554534
 H   -1.158204    1.592672    0.246586
 H   -3.606161    0.828781    0.262356
 H   -4.085104   -1.579579    0.098720
 H   -2.310155   -3.075610   -0.712812
 H    0.031218   -2.364724   -0.654181
 H   -1.835626   -0.371187    2.079198
 H    1.866653   -1.079280   -1.882796
 H    2.090824   -1.518172   -0.176097
 H    3.399373    0.916973   -1.493449
 H    4.215678   -0.620094   -1.158131
 H    4.661892    1.847675    1.504604
