56 
4n4t_ligand_ani-2x.xyz
 C   -5.035971   -0.552975   -0.246754
 C   -5.768850   -1.654113    0.188455
 C   -5.653190   -2.086803    1.506521
 C   -4.802287   -1.413912    2.379509
 C   -4.067686   -0.314393    1.940642
 C   -4.176576    0.126342    0.621696
 C   -3.430382    1.349498    0.103527
 C   -4.175354    2.709187    0.269221
 C   -5.639096    2.615709    0.666976
 C   -3.987402    3.576947   -0.970656
 O   -3.473829    3.341760    1.360440
 C   -2.281910    2.752657    1.593769
 O   -1.493349    3.162109    2.405000
 N   -2.179095    1.624932    0.795425
 C    0.249304    1.375029    0.914612
 C   -1.014453    0.853386    0.615064
 C   -1.104660   -0.442639    0.090901
 C    0.040649   -1.193446   -0.122260
 C    1.307338   -0.680819    0.163996
 C    1.382176    0.616060    0.679772
 C    2.530793   -1.477325   -0.069333
 C    3.704861   -0.905225   -0.553805
 C    4.846020   -1.661241   -0.752964
 C    4.774546   -3.053187   -0.454833
 N    3.649965   -3.606819    0.027810
 C    2.579054   -2.843639    0.203151
 N    5.923690    0.322325   -1.548376
 C    6.999970    0.969434   -1.985885
 C    8.237617    0.359204   -2.116643
 C    8.289419   -0.980319   -1.766543
 N    7.224139   -1.649630   -1.337704
 C    6.065675   -0.971793   -1.240354
 N    5.810100   -3.900662   -0.657583
 H   -5.136592   -0.212359   -1.276436
 H   -6.428511   -2.172585   -0.502716
 H   -6.223256   -2.944879    1.852079
 H   -4.703961   -1.745904    3.410017
 H   -3.396881    0.196738    2.627267
 H   -3.224557    1.163093   -0.957919
 H   -6.216848    2.131992   -0.128091
 H   -5.760200    2.031191    1.583134
 H   -6.040926    3.618991    0.833068
 H   -4.545814    3.153127   -1.812490
 H   -2.931406    3.643493   -1.251621
 H   -4.356867    4.587152   -0.773693
 H    0.337702    2.370535    1.330125
 H   -2.071577   -0.877334   -0.137873
 H   -0.052277   -2.189122   -0.548045
 H    2.355662    1.034942    0.925799
 H    3.747861    0.149006   -0.804151
 H    1.700831   -3.344284    0.610049
 H    6.858352    2.019329   -2.234923
 H    9.110355    0.896049   -2.469744
 H    9.219493   -1.540143   -1.836724
 H    5.708168   -4.826114   -0.275222
 H    6.719824   -3.508851   -0.865085
