62 
4n4v_ligand_xtb.xyz
 C   -4.143645   -0.500412    1.669118
 C   -4.465368   -1.490797    2.579110
 C   -4.960207   -2.706757    2.137611
 C   -5.132529   -2.928086    0.782395
 C   -4.808500   -1.937798   -0.128786
 C   -4.312409   -0.716992    0.306024
 C   -3.956939    0.361131   -0.690309
 C   -4.900704    1.599685   -0.677244
 C   -5.104446    2.119641   -2.102730
 C   -6.242728    1.371832    0.007309
 O   -4.163270    2.581123    0.056959
 C   -2.856002    2.234793    0.129333
 O   -2.008434    2.957082    0.579883
 N   -2.692136    0.986739   -0.377807
 C   -1.420513    0.292636   -0.473168
 C   -0.474877    1.054978   -1.405025
 C    0.851917    0.317059   -1.541970
 C    1.509795    0.138130   -0.169914
 C    0.561427   -0.630417    0.755935
 C   -0.767397    0.104104    0.897781
 C    2.842943   -0.550613   -0.287411
 C    4.014954    0.073590    0.106966
 C    5.247440   -0.568671   -0.006592
 C    5.245392   -1.884767   -0.542495
 N    4.111304   -2.483317   -0.921448
 C    2.969432   -1.841510   -0.797074
 N    7.638822   -0.493055    0.311895
 C    8.713125    0.163588    0.708176
 C    8.652496    1.448335    1.223042
 C    7.379454    2.003605    1.295504
 N    6.302856    1.359145    0.904005
 C    6.452037    0.121153    0.418724
 N    6.373825   -2.595399   -0.698004
 H   -3.758753    0.447899    2.016546
 H   -4.329224   -1.312753    3.635514
 H   -5.209826   -3.479891    2.848765
 H   -5.516959   -3.874716    0.432545
 H   -4.941646   -2.114709   -1.187065
 H   -3.927159   -0.075852   -1.696371
 H   -5.695159    1.413778   -2.680597
 H   -4.142019    2.267564   -2.588382
 H   -5.621841    3.074844   -2.069919
 H   -6.832688    2.282220   -0.052181
 H   -6.777639    0.563174   -0.483419
 H   -6.102672    1.119713    1.054267
 H   -1.641437   -0.692015   -0.902885
 H   -0.308715    2.048542   -0.987031
 H   -0.942575    1.171562   -2.385875
 H    1.520161    0.879134   -2.197438
 H    0.682019   -0.660950   -1.997921
 H    1.673853    1.131722    0.260326
 H    0.383448   -1.630019    0.352903
 H    1.023842   -0.745269    1.738268
 H   -1.437314   -0.464235    1.546844
 H   -0.607138    1.087267    1.341870
 H    3.998951    1.074270    0.512083
 H    2.102989   -2.400506   -1.127737
 H    9.652115   -0.367996    0.605170
 H    9.531667    1.980285    1.545037
 H    7.216140    3.002648    1.681888
 H    7.244395   -2.163737   -0.415663
 H    6.306570   -3.521031   -1.079833
