62 
4n4v_ligand_ani-2x.xyz
 C   -4.159798   -1.238337    1.029143
 C   -4.692058   -2.472997    1.390585
 C   -5.395880   -3.232415    0.460317
 C   -5.568942   -2.747842   -0.832922
 C   -5.036949   -1.511729   -1.188937
 C   -4.318188   -0.747245   -0.268424
 C   -3.809337    0.612863   -0.694749
 C   -4.805127    1.795746   -0.497112
 C   -5.581457    2.107982   -1.765419
 C   -5.723737    1.624936    0.704915
 O   -3.924078    2.906574   -0.231340
 C   -2.686299    2.477963    0.111244
 O   -1.796213    3.228236    0.429385
 N   -2.647638    1.103587    0.024973
 C   -1.392524    0.354415    0.056505
 C   -0.433144    0.763940   -1.069007
 C    0.865128   -0.043424   -1.013989
 C    1.549984    0.092612    0.360629
 C    0.576899   -0.331840    1.470914
 C   -0.711967    0.488682    1.419878
 C    2.878526   -0.632479    0.424227
 C    4.080177    0.047397    0.230642
 C    5.298125   -0.613302    0.238211
 C    5.279026   -2.027738    0.419824
 N    4.128844   -2.684917    0.619509
 C    2.984990   -2.004064    0.626490
 N    7.738024   -0.398194    0.194373
 C    8.812473    0.370608    0.051085
 C    8.728827    1.725229   -0.227763
 C    7.446728    2.239279   -0.341559
 N    6.357409    1.491346   -0.188884
 C    6.533400    0.190941    0.070606
 N    6.400636   -2.789632    0.374630
 H   -3.617384   -0.650695    1.768252
 H   -4.553688   -2.842402    2.403221
 H   -5.809253   -4.196783    0.743446
 H   -6.117760   -3.333615   -1.566447
 H   -5.180876   -1.135484   -2.200619
 H   -3.583925    0.544975   -1.776059
 H   -6.195566    1.248217   -2.056568
 H   -4.898152    2.351525   -2.584125
 H   -6.246546    2.962464   -1.604827
 H   -6.310299    2.534635    0.858467
 H   -6.396616    0.777860    0.541891
 H   -5.149481    1.423904    1.616463
 H   -1.665832   -0.701279   -0.091412
 H   -0.216450    1.835552   -0.960345
 H   -0.930058    0.628303   -2.037806
 H    1.545634    0.290606   -1.805577
 H    0.658972   -1.106707   -1.207129
 H    1.760992    1.164342    0.508773
 H    0.329646   -1.397479    1.358287
 H    1.060028   -0.224205    2.448862
 H   -1.409238    0.162609    2.200522
 H   -0.504165    1.550155    1.600142
 H    4.102498    1.121000    0.076029
 H    2.092689   -2.605444    0.804349
 H    9.778144   -0.118625    0.158359
 H    9.610496    2.343778   -0.348435
 H    7.277575    3.292432   -0.557828
 H    7.297854   -2.322170    0.410478
 H    6.295402   -3.742949    0.681159
