62 
4n4v_ligand_aiqm1.xyz
 C   -4.158325   -1.132629    1.263335
 C   -4.655329   -2.348290    1.726849
 C   -5.343922   -3.201059    0.870014
 C   -5.532570   -2.834762   -0.459409
 C   -5.032513   -1.622015   -0.925777
 C   -4.346364   -0.756335   -0.070541
 C   -3.829648    0.552792   -0.615252
 C   -4.812945    1.746818   -0.554106
 C   -5.467608    2.011831   -1.895465
 C   -5.836823    1.663639    0.567805
 O   -3.950160    2.869119   -0.270972
 C   -2.721704    2.456796    0.116618
 O   -1.848262    3.223648    0.434727
 N   -2.678210    1.082399    0.088899
 C   -1.394615    0.355012    0.063583
 C   -0.554240    0.734294   -1.159304
 C    0.738480   -0.076966   -1.190552
 C    1.542407    0.135448    0.097072
 C    0.693826   -0.236396    1.317455
 C   -0.597231    0.578843    1.346908
 C    2.862428   -0.605038    0.069446
 C    4.074927    0.074352    0.114104
 C    5.294806   -0.596575    0.084499
 C    5.252982   -2.009560   -0.018013
 N    4.093416   -2.676758   -0.039629
 C    2.949628   -1.992273    0.003955
 N    7.697510   -0.439082    0.427642
 C    8.794055    0.319161    0.526374
 C    8.766663    1.697642    0.382151
 C    7.520058    2.256551    0.129043
 N    6.411453    1.523475    0.030212
 C    6.538056    0.194705    0.178724
 N    6.372279   -2.783642   -0.172761
 H   -3.625640   -0.466897    1.931268
 H   -4.503178   -2.630323    2.760017
 H   -5.727813   -4.144164    1.233768
 H   -6.062888   -3.490298   -1.136666
 H   -5.175128   -1.343812   -1.964174
 H   -3.565826    0.393635   -1.674665
 H   -6.113353    1.173858   -2.168264
 H   -4.713763    2.147013   -2.673296
 H   -6.074811    2.914180   -1.840586
 H   -6.376490    2.609644    0.625205
 H   -6.549376    0.858351    0.383035
 H   -5.345850    1.486204    1.526699
 H   -1.653255   -0.703112   -0.006992
 H   -0.317986    1.799051   -1.095624
 H   -1.132215    0.576047   -2.076179
 H    1.342964    0.201251   -2.056644
 H    0.503843   -1.143386   -1.295743
 H    1.758446    1.209504    0.168433
 H    0.457469   -1.307056    1.278485
 H    1.266648   -0.072101    2.232972
 H   -1.208637    0.305700    2.212320
 H   -0.360656    1.639267    1.426133
 H    4.068049    1.154600    0.178402
 H    2.049869   -2.601702   -0.015099
 H    9.720250   -0.207826    0.726567
 H    9.659914    2.300471    0.460994
 H    7.397381    3.325524    0.001527
 H    7.237950   -2.388621    0.161008
 H    6.202076   -3.759453   -0.001036
