62 
4n4v_ligand_dft.xyz
 C    4.373863    1.384844    1.212777
 C    4.793066    2.638037    1.646094
 C    5.530237    3.462128    0.799564
 C    5.835763    3.030796   -0.487986
 C    5.405534    1.780912   -0.923080
 C    4.681867    0.942018   -0.074620
 C    4.289833   -0.434108   -0.558157
 C    5.341148   -1.548637   -0.279935
 C    6.289363   -1.752834   -1.448321
 C    6.093872   -1.373617    1.034843
 O    4.515613   -2.724217   -0.149895
 C    3.239307   -2.372101    0.145107
 O    2.381762   -3.180535    0.405039
 N    3.122006   -1.000147    0.090921
 C    1.813827   -0.352003   -0.030645
 C    1.036020   -0.817455   -1.267906
 C   -0.293316   -0.069253   -1.391363
 C   -1.148350   -0.219025   -0.121015
 C   -0.348925    0.237636    1.112198
 C    0.977971   -0.512697    1.241250
 C   -2.478012    0.493524   -0.226195
 C   -3.685262   -0.169061   -0.067353
 C   -4.911576    0.498201   -0.140626
 C   -4.867562    1.898278   -0.398926
 N   -3.699810    2.554071   -0.543425
 C   -2.569295    1.869650   -0.456498
 N   -7.333795    0.377514    0.062994
 C   -8.433708   -0.347764    0.264727
 C   -8.398312   -1.716337    0.471797
 C   -7.132143   -2.294835    0.456485
 N   -6.024322   -1.594822    0.258452
 C   -6.153782   -0.268673    0.065874
 N   -5.974997    2.666132   -0.536883
 H    3.799632    0.740723    1.872155
 H    4.544039    2.971634    2.649101
 H    5.858735    4.439543    1.139883
 H    6.402666    3.670463   -1.157688
 H    5.630477    1.453810   -1.935894
 H    4.126256   -0.378019   -1.647631
 H    6.873929   -0.841536   -1.613744
 H    5.733957   -1.987462   -2.361084
 H    6.981592   -2.573776   -1.241143
 H    6.674033   -2.279245    1.232788
 H    6.773148   -0.517950    0.991042
 H    5.397868   -1.222963    1.864894
 H    2.035231    0.716647   -0.148166
 H    0.853046   -1.894312   -1.180163
 H    1.641566   -0.659586   -2.169254
 H   -0.853193   -0.435435   -2.258888
 H   -0.095777    0.996858   -1.573144
 H   -1.356787   -1.291120    0.006138
 H   -0.156160    1.317712    1.034803
 H   -0.951726    0.092109    2.015291
 H    1.545820   -0.137164    2.100523
 H    0.796406   -1.578610    1.412301
 H   -3.702824   -1.237312    0.125891
 H   -1.662704    2.463243   -0.576594
 H   -9.374614    0.198241    0.258483
 H   -9.297594   -2.297879    0.634810
 H   -7.002415   -3.364498    0.610083
 H   -6.876790    2.268888   -0.313802
 H   -5.828950    3.660021   -0.605110
