24 
4n5d_ligand_xtb.xyz
 O  -28.569750  -28.530991    4.686681
 C  -27.638481  -28.231523    3.977629
 C  -27.820175  -27.962136    2.506627
 N  -29.002150  -28.082190    2.090784
 C  -26.643662  -27.581695    1.643927
 N  -26.361207  -28.123168    4.483987
 C  -26.153983  -28.380226    5.896444
 C  -25.257016  -27.782495    3.739855
 C  -25.342893  -27.511345    2.369304
 C  -24.144829  -27.179831    1.756785
 N  -22.994174  -27.120246    2.405973
 N  -24.098570  -27.722330    4.390687
 C  -23.014600  -27.395294    3.703612
 C  -21.724166  -27.333293    4.446958
 H  -29.142443  -27.903598    1.098209
 H  -26.858308  -26.612267    1.176779
 H  -26.569450  -28.307021    0.823849
 H  -25.452522  -29.204221    6.020284
 H  -25.738626  -27.493665    6.373770
 H  -27.117437  -28.631694    6.333748
 H  -24.103758  -26.951515    0.698714
 H  -21.017663  -28.035215    4.009612
 H  -21.298584  -26.336508    4.355929
 H  -21.888850  -27.574031    5.492156
