51 
4n8r_ligand_dft.xyz
 C   47.324607   -6.616510  113.469070
 C   48.755031   -6.896246  113.133575
 C   49.533563   -6.255337  112.232032
 C   50.888298   -6.824926  112.276342
 C   50.911780   -7.868090  113.223790
 C   49.546125   -7.960380  113.795094
 C   49.039057   -8.765208  114.746856
 C   49.671736   -9.923560  115.400657
 C   49.599685  -10.071059  116.788784
 C   50.171583  -11.171263  117.417406
 C   50.811538  -12.171562  116.684320
 C   50.855130  -12.036475  115.292971
 C   50.293723  -10.935967  114.660285
 C   51.431002  -13.371416  117.377130
 C   52.945790  -13.436624  117.140491
 C   50.749591  -14.680071  116.955374
 C   52.105676   -8.519619  113.503579
 C   53.260450   -8.148503  112.810042
 C   53.226118   -7.136523  111.854814
 C   52.035508   -6.459908  111.585707
 C   49.182759   -5.076397  111.378746
 C   49.539672   -3.738042  112.072231
 C   48.699690   -3.507105  113.280500
 N   49.021978   -3.730921  114.536494
 N   47.913346   -3.465546  115.268775
 N   46.935505   -3.093089  114.520530
 N   47.411401   -3.112112  113.263603
 H   46.722828   -7.532085  113.459816
 H   47.238030   -6.170511  114.467648
 H   46.872482   -5.918074  112.759349
 H   48.027653   -8.547496  115.089469
 H   49.104627   -9.306817  117.382323
 H   50.116907  -11.254960  118.500206
 H   51.330118  -12.806064  114.689435
 H   50.329091  -10.855025  113.577753
 H   51.268618  -13.245032  118.455365
 H   53.387187  -14.271232  117.696360
 H   53.172644  -13.585879  116.078515
 H   53.435035  -12.511571  117.461428
 H   51.167408  -15.527963  117.509382
 H   49.672091  -14.642087  117.144125
 H   50.896755  -14.874579  115.886743
 H   52.157762   -9.299805  114.254076
 H   54.196277   -8.655970  113.024333
 H   54.133535   -6.863124  111.324220
 H   52.017995   -5.655170  110.854589
 H   48.116742   -5.081597  111.122820
 H   49.728964   -5.124228  110.429827
 H   50.584514   -3.755112  112.392660
 H   49.416711   -2.907243  111.367876
 H   46.816687   -2.846919  112.493485
