17 
4n9c_ligand_ani-2x.xyz
 O    4.055108  -28.148995  -29.527095
 N    4.446041  -28.760530  -30.506157
 O    5.031537  -29.828841  -30.469496
 C    4.193338  -28.167251  -31.828120
 C    3.521642  -26.936488  -31.892198
 C    3.268328  -26.351509  -33.120222
 C    3.708268  -27.039417  -34.255150
 N    3.630530  -26.762402  -35.605052
 C    4.237398  -27.802901  -36.259344
 N    4.699019  -28.723941  -35.464692
 C    4.381511  -28.273377  -34.187463
 C    4.633178  -28.857005  -32.942595
 H    3.209486  -26.460358  -30.970444
 H    2.749786  -25.399762  -33.186703
 H    3.209141  -25.951957  -36.027615
 H    4.306893  -27.821144  -37.340686
 H    5.147797  -29.805122  -32.839969
