58 
4n9e_ligand_xtb.xyz
 C   11.213532    6.388350    0.160489
 C   10.782356    5.307891   -0.592023
 C   11.327004    5.066750   -1.841809
 C   12.312725    5.907674   -2.342660
 C   12.734170    6.998580   -1.589817
 C   12.186725    7.236054   -0.341620
 C   12.910839    5.740488   -3.707371
 O   12.631490    6.495509   -4.616788
 N   13.796492    4.714973   -3.861448
 C   14.740843    4.803812   -4.956318
 C   15.978997    5.566440   -4.475508
 C   16.602494    4.898644   -3.244403
 C   15.540477    4.632907   -2.171995
 C   14.314370    3.936829   -2.762350
 C   17.754185    5.754458   -2.669940
 N   17.312445    7.044603   -2.216447
 C   17.190179    8.173284   -2.978173
 N   16.601987    9.159147   -2.381025
 C   16.285196    8.690904   -1.132004
 C   16.740504    7.353668   -1.006980
 C   16.583725    6.644966    0.176515
 C   15.887922    7.257782    1.194946
 C   15.379680    8.560277    1.061514
 C   15.607651    9.302303   -0.086271
 C   14.585802    9.194779    2.154330
 O   14.671614   10.367028    2.441161
 N   13.726170    8.310934    2.759053
 C   12.809533    8.546104    3.779139
 C   11.959256    7.507554    4.159514
 C   11.044973    7.722057    5.173409
 C   11.013116    8.971533    5.775676
 N   11.815614    9.959665    5.421946
 C   12.689066    9.764548    4.455020
 H   10.776922    6.579820    1.130173
 H   10.013053    4.654391   -0.207610
 H   10.980028    4.233714   -2.436284
 H   13.480587    7.670645   -1.988781
 H   12.510257    8.095596    0.226597
 H   14.260669    5.339373   -5.776172
 H   15.002099    3.793806   -5.283602
 H   15.663332    6.582218   -4.226288
 H   16.713361    5.623964   -5.280815
 H   17.036857    3.940027   -3.551365
 H   15.203812    5.577306   -1.741530
 H   15.961415    4.020324   -1.372797
 H   14.584299    2.948279   -3.148562
 H   13.548609    3.813307   -1.996101
 H   18.512956    5.905295   -3.443027
 H   18.214316    5.228581   -1.828450
 H   17.572530    8.223314   -3.979833
 H   16.983111    5.649789    0.300626
 H   15.765011    6.730457    2.130329
 H   15.249239   10.315502   -0.165534
 H   13.700032    7.374442    2.376506
 H   12.022475    6.547241    3.662899
 H   10.374381    6.937244    5.488176
 H   10.318357    9.192755    6.574299
 H   13.319058   10.602815    4.200280
