82 
4na7_ligand_aiqm1.xyz
 C    4.532951    1.583120    4.007095
 C    4.512252    0.199745    4.128856
 C    4.048641    2.172689    2.842023
 C   -3.694164    3.433523   -0.660548
 C   -3.926506    4.787242   -0.459958
 C    4.930354    0.120044   -2.924532
 C    4.005709   -0.596594    3.097337
 C    3.545119    1.381755    1.814945
 C    3.549409    0.200138   -2.863813
 C   -1.041047    0.974877   -0.425602
 C   -3.372358    0.385052   -0.350841
 C   -2.158004    4.852431    1.170656
 C    4.981081   -0.545101   -0.621722
 C   -1.702426   -1.333026   -0.707124
 C   -2.690016    2.764246    0.048874
 C   -2.370347    1.350210   -0.251529
 C   -3.140433    5.512296    0.436615
 C    5.668085   -0.257104   -1.800907
 C   -1.950867    3.485358    1.007041
 C    3.509716   -0.015169    1.926610
 C   -0.703655   -0.361329   -0.618618
 C    3.594077   -0.476995   -0.534599
 C    2.865088   -0.105022   -1.679991
 C   -3.043240   -0.955508   -0.582026
 C    7.148835   -0.364202   -1.866383
 C   -3.419777    6.978745    0.582231
 C   -0.989045    2.786723    1.913557
 C   -4.071248   -3.224885   -0.903694
 C    1.391104   -0.486291    0.724707
 C    0.757100   -0.758967   -0.634019
 C    2.895394   -0.836434    0.780866
 C    3.043050   -2.353993    1.006499
 C   -4.957558   -5.782595    0.659112
 C   -6.809615   -5.951642   -1.027145
 C   -5.451021   -3.862016   -0.892431
 C   -5.425603   -5.379398   -0.737861
 N    7.840883   -0.674118   -2.899151
 N    1.476787    0.016704   -1.638433
 N    7.803184   -0.161263   -0.663421
 N   -2.438003    7.722291    1.174518
 N   -4.105142   -1.873992   -0.658281
 O   -4.469475    7.468189    0.210838
 O   -1.190141    1.737145    2.469377
 O   -3.050141   -3.842794   -1.133727
 O    0.153957    3.492612    2.070016
 H    4.924474    2.195451    4.807862
 H    4.889296   -0.271210    5.027294
 H    4.065590    3.250364    2.733404
 H   -4.283467    2.885313   -1.385792
 H   -4.706733    5.308655   -0.997149
 H    5.437712    0.368712   -3.848504
 H    4.002293   -1.670344    3.218862
 H    3.178432    1.846971    0.905521
 H    2.987372    0.501801   -3.740801
 H   -0.255832    1.722868   -0.379957
 H   -4.411570    0.672510   -0.215996
 H   -1.574274    5.388272    1.909675
 H    5.547769   -0.848307    0.250517
 H   -1.439281   -2.369839   -0.854560
 H    0.868698   -1.050859    1.500126
 H    1.250771    0.573967    0.953207
 H    0.825308   -1.837431   -0.859461
 H    2.597343   -2.901092    0.173749
 H    2.532839   -2.664230    1.921904
 H    4.092421   -2.655928    1.075674
 H   -3.955242   -5.405103    0.860929
 H   -4.942535   -6.868908    0.760107
 H   -5.638621   -5.382785    1.417240
 H   -7.539542   -5.562815   -0.310886
 H   -6.805937   -7.038306   -0.943039
 H   -7.148329   -5.689976   -2.031633
 H   -6.050828   -3.417095   -0.089601
 H   -5.933513   -3.588613   -1.838657
 H   -4.717243   -5.775106   -1.468907
 H    7.236391   -0.902409   -3.682509
 H    1.052699   -0.039132   -2.551732
 H    8.802340   -0.098392   -0.771857
 H    7.404027    0.521070   -0.041098
 H   -1.490938    7.392167    1.191487
 H   -2.576343    8.717623    1.145991
 H   -5.016951   -1.492664   -0.474140
 H    0.708962    2.978501    2.669218
