82 
4na7_ligand_xtb.xyz
 C    4.108619    1.028364    4.164289
 C    4.132502   -0.353202    4.134631
 C    3.702902    1.724447    3.036893
 C   -3.481006    3.354606   -0.778440
 C   -3.643095    4.711509   -0.586152
 C    4.827972    0.790692   -2.780550
 C    3.751863   -1.039707    2.992140
 C    3.327014    1.038201    1.898201
 C    3.470933    0.568659   -2.822992
 C   -0.960707    0.774544   -0.624761
 C   -3.294179    0.312675   -0.346092
 C   -1.790763    4.724651    0.937874
 C    4.901485   -0.140373   -0.579039
 C   -1.743701   -1.490564   -0.729701
 C   -2.473999    2.655625   -0.119379
 C   -2.249734    1.226295   -0.374131
 C   -2.783795    5.414734    0.254670
 C    5.568311    0.440527   -1.652908
 C   -1.640381    3.353976    0.766906
 C    3.345172   -0.355236    1.856907
 C   -0.702148   -0.579268   -0.770052
 C    3.538121   -0.373764   -0.605167
 C    2.803023   -0.020480   -1.744085
 C   -3.048356   -1.044986   -0.535261
 C    7.030447    0.667927   -1.610934
 C   -3.004393    6.884240    0.411023
 C   -0.644975    2.638943    1.609735
 C   -4.181038   -3.262557   -0.718689
 C    1.346658   -0.839120    0.535132
 C    0.736697   -1.024873   -0.858633
 C    2.871619   -1.038512    0.584075
 C    3.208772   -2.533658    0.535721
 C   -5.062957   -5.680651    1.005899
 C   -6.989464   -5.908062   -0.587527
 C   -5.589244   -3.824212   -0.597110
 C   -5.587079   -5.341536   -0.386818
 N    7.833800    0.610330   -2.597408
 N    1.445619   -0.187638   -1.797606
 N    7.554711    0.904708   -0.366740
 N   -1.900406    7.605325    0.724801
 N   -4.141416   -1.914294   -0.490780
 O   -4.093106    7.398142    0.267390
 O   -0.830063    1.594147    2.177594
 O   -3.217887   -3.931289   -1.013273
 O    0.509736    3.316431    1.719727
 H    4.404564    1.561148    5.055765
 H    4.448666   -0.905745    5.007338
 H    3.689559    2.806175    3.045213
 H   -4.128250    2.823618   -1.460544
 H   -4.428960    5.255478   -1.088149
 H    5.321168    1.255102   -3.623020
 H    3.780093   -2.117388    3.000961
 H    3.029775    1.588360    1.015221
 H    2.901614    0.848536   -3.698734
 H   -0.147816    1.482660   -0.694785
 H   -4.298341    0.655329   -0.138470
 H   -1.149376    5.229897    1.644590
 H    5.463049   -0.435322    0.295971
 H   -1.553085   -2.544788   -0.839809
 H    0.863160   -1.528321    1.228996
 H    1.107004    0.171248    0.867349
 H    0.783213   -2.085683   -1.153431
 H    2.928918   -2.939326   -0.434159
 H    2.668506   -3.083829    1.302946
 H    4.277031   -2.689204    0.666880
 H   -4.055179   -5.294582    1.133901
 H   -5.036831   -6.758054    1.148574
 H   -5.703954   -5.248412    1.772752
 H   -7.683416   -5.469835    0.127631
 H   -6.985608   -6.985333   -0.441990
 H   -7.352905   -5.700984   -1.591830
 H   -6.118323   -3.334901    0.223947
 H   -6.112492   -3.584607   -1.527918
 H   -4.911668   -5.779986   -1.127664
 H    7.396691    0.341090   -3.472796
 H    1.018268   -0.089341   -2.705842
 H    8.523550    1.180581   -0.369926
 H    6.965572    1.345298    0.319165
 H   -0.980120    7.205068    0.727029
 H   -1.993105    8.604543    0.802441
 H   -5.020539   -1.463590   -0.276521
 H    1.127984    2.829782    2.291436
