66 
4na8_ligand_ani-2x.xyz
 C    1.861865    0.250415    1.551722
 C    6.343200    0.263581   -0.957985
 C    4.274052   -0.049383    0.916298
 C    3.169810   -0.065593    1.911902
 C   -3.827909    1.184955   -0.667820
 C   -4.006576    2.435695   -1.254830
 C    4.241911   -0.754790   -0.304972
 C   -3.006303   -1.612081   -0.128868
 C    0.829130    0.248423    2.484618
 C   -2.722665    0.883808    0.122550
 C   -1.769012    1.889783    0.359236
 C    1.117940   -0.053351    3.813893
 C   -1.955230    3.159168   -0.206372
 C    3.179157   -1.759979   -0.623414
 C   -3.534693   -3.734447   -1.903943
 C   -4.127693   -3.702476   -0.647017
 C   -2.680142   -2.701697   -2.279036
 C    2.425780   -0.347350    4.196375
 C    3.445642   -0.340224    3.253532
 C    5.401970    0.729002    1.203082
 C    6.423286    0.887407    0.285468
 C   -3.058917    3.429254   -0.993078
 C   -3.866913   -2.652027    0.229512
 C   -2.422212   -1.654665   -1.400320
 C    5.267987   -0.572040   -1.231902
 C   -5.171708    2.733021   -2.137628
 C    7.456827    0.488681   -1.934198
 C   -1.191373   -0.718211    1.326520
 C   -0.596943    0.504754    2.029824
 C   -2.633418   -0.469222    0.831154
 C   -3.591238   -0.397167    2.032234
 N   -5.576380    3.939189   -2.246582
 N   -0.627627    1.624131    1.101515
 N   -5.734081    1.615038   -2.749125
 N    7.145929    0.261193   -3.249986
 O    8.569355    0.834518   -1.580304
 O    2.326470   -2.171638    0.126806
 O    3.268556   -2.214207   -1.896350
 H    1.639976    0.491478    0.513424
 H   -4.582266    0.415089   -0.816185
 H    0.324992   -0.059424    4.559155
 H   -1.217672    3.937845   -0.019450
 H   -3.737282   -4.554519   -2.587795
 H   -4.801425   -4.498281   -0.338721
 H   -2.209871   -2.712480   -3.258854
 H    2.651178   -0.572381    5.235504
 H    4.467202   -0.569888    3.552917
 H    5.456851    1.243911    2.158527
 H    7.296627    1.490852    0.509979
 H   -3.204429    4.416012   -1.421205
 H   -4.352708   -2.652837    1.201214
 H   -1.766647   -0.842057   -1.712941
 H    5.227680   -1.131545   -2.160836
 H   -1.183864   -1.582085    1.997775
 H   -0.546612   -0.969732    0.474131
 H   -1.193339    0.730485    2.931866
 H   -3.370780    0.477214    2.650575
 H   -3.508903   -1.288032    2.665102
 H   -4.627505   -0.298440    1.690276
 H   -6.383899    4.003620   -2.868503
 H   -0.165682    2.455250    1.443201
 H   -5.087345    0.870925   -2.976827
 H   -6.374553    1.818780   -3.505010
 H    6.188131    0.320126   -3.558326
 H    7.854600    0.541967   -3.911921
 H    2.560612   -2.872921   -1.986586
