66 
4na8_ligand_aiqm1.xyz
 C    1.873730    0.468811    1.624119
 C    6.128258   -0.246786   -1.038940
 C    4.222682   -0.026442    1.017129
 C    3.174949    0.196547    2.040038
 C   -3.928278    1.126647   -0.530541
 C   -4.277749    2.386246   -1.013608
 C    3.983294   -0.851532   -0.099361
 C   -2.515028   -1.503834   -0.423830
 C    0.831763    0.594306    2.539334
 C   -2.758022    0.913831    0.192872
 C   -1.914468    2.011494    0.445618
 C    1.118252    0.514578    3.904111
 C   -2.266205    3.279937   -0.036516
 C    2.761620   -1.709515   -0.167836
 C   -2.520216   -3.353266   -2.547727
 C   -3.289651   -3.582524   -1.414417
 C   -1.750541   -2.195251   -2.626871
 C    2.426348    0.294515    4.334913
 C    3.454317    0.127194    3.408123
 C    5.455150    0.631004    1.107547
 C    6.402311    0.511920    0.099923
 C   -3.433757    3.467265   -0.752276
 C   -3.289657   -2.665942   -0.358647
 C   -1.750565   -1.282293   -1.577884
 C    4.918325   -0.930384   -1.128170
 C   -5.532641    2.605176   -1.779876
 C    7.178151   -0.306573   -2.107947
 C   -0.997739   -0.546231    1.287995
 C   -0.589599    0.716020    2.039164
 C   -2.435631   -0.485626    0.725822
 C   -3.425627   -0.811568    1.861796
 N   -6.016428    3.787296   -1.870504
 N   -0.708691    1.846527    1.127350
 N   -6.108529    1.455567   -2.309323
 N    6.763748   -0.746040   -3.334402
 O    8.333984    0.000522   -1.886333
 O    2.304200   -2.351087    0.743410
 O    2.220196   -1.711099   -1.408105
 H    1.656345    0.555684    0.562744
 H   -4.592982    0.287367   -0.695762
 H    0.315913    0.606623    4.626573
 H   -1.611020    4.120778    0.163160
 H   -2.520715   -4.066227   -3.360850
 H   -3.894135   -4.477277   -1.341315
 H   -1.150133   -2.003592   -3.507828
 H    2.642093    0.231647    5.394107
 H    4.461782   -0.086729    3.745094
 H    5.660074    1.250199    1.972353
 H    7.360342    1.008625    0.168447
 H   -3.713561    4.447585   -1.108709
 H   -3.897391   -2.870287    0.511279
 H   -1.156367   -0.377253   -1.649726
 H    4.711113   -1.567139   -1.980030
 H   -0.909592   -1.417587    1.941411
 H   -0.288048   -0.690519    0.468547
 H   -1.252881    0.853782    2.913145
 H   -3.342332   -0.066102    2.655086
 H   -3.212544   -1.791038    2.298110
 H   -4.462747   -0.806264    1.513383
 H   -6.864713    3.791956   -2.434281
 H   -0.362593    2.707994    1.521105
 H   -5.469457    0.735674   -2.603478
 H   -6.830646    1.632244   -2.986732
 H    5.795165   -0.696160   -3.590426
 H    7.438346   -0.652980   -4.073898
 H    1.449324   -2.290013   -1.364659
