66 
4na8_ligand_xtb.xyz
 C    1.744545    0.418709    1.777727
 C    5.819064   -0.023008   -1.200428
 C    4.028373   -0.016888    0.955231
 C    3.056235    0.056928    2.053621
 C   -3.623224    1.091125   -0.679507
 C   -3.800073    2.319326   -1.306458
 C    3.692946   -0.653035   -0.249943
 C   -2.557783   -1.551564   -0.138167
 C    0.772920    0.406352    2.766160
 C   -2.622610    0.887085    0.255397
 C   -1.769913    1.945271    0.590533
 C    1.135176    0.086509    4.065850
 C   -1.953462    3.184756   -0.033538
 C    2.432714   -1.429231   -0.388911
 C   -2.514942   -3.508594   -2.135655
 C   -3.302106   -3.671201   -1.011322
 C   -1.745400   -2.363468   -2.265517
 C    2.452465   -0.223218    4.362316
 C    3.409093   -0.250466    3.364540
 C    5.283287    0.574854    1.069560
 C    6.171221    0.562630    0.013389
 C   -2.950040    3.369794   -0.961404
 C   -3.321914   -2.702663   -0.019743
 C   -1.769001   -1.398062   -1.277498
 C    4.581013   -0.640847   -1.318987
 C   -4.856045    2.547048   -2.305950
 C    6.818307    0.009210   -2.310562
 C   -1.118518   -0.612549    1.599843
 C   -0.661094    0.638555    2.358126
 C   -2.494269   -0.467813    0.925997
 C   -3.608278   -0.581068    1.974028
 N   -5.271212    3.731623   -2.495251
 N   -0.735616    1.776478    1.472827
 N   -5.350553    1.428400   -2.939587
 N    6.295447   -0.024118   -3.561053
 O    8.013050    0.062496   -2.111395
 O    1.954933   -2.151400    0.447217
 O    1.873646   -1.279563   -1.602273
 H    1.469227    0.705905    0.772438
 H   -4.288193    0.267947   -0.900665
 H    0.386689    0.070615    4.844927
 H   -1.295060    4.001278    0.229448
 H   -2.499921   -4.265007   -2.906282
 H   -3.906817   -4.559479   -0.900295
 H   -1.132766   -2.221115   -3.145665
 H    2.729843   -0.467564    5.377040
 H    4.423459   -0.542526    3.591607
 H    5.550563    1.061761    1.995589
 H    7.148565    1.012551    0.101958
 H   -3.099195    4.325826   -1.436057
 H   -3.945170   -2.859782    0.845922
 H   -1.181001   -0.497495   -1.394060
 H    4.304316   -1.159655   -2.224750
 H   -1.132328   -1.460813    2.286223
 H   -0.367860   -0.828884    0.839473
 H   -1.288047    0.787011    3.253634
 H   -3.565952    0.274589    2.644598
 H   -3.500155   -1.486095    2.568075
 H   -4.584905   -0.580351    1.495858
 H   -5.998831    3.812710   -3.202281
 H   -0.290139    2.619179    1.802768
 H   -4.791436    0.593067   -2.967512
 H   -5.956830    1.576207   -3.730899
 H    5.309866    0.054012   -3.733182
 H    6.928671    0.035538   -4.341110
 H    1.065923   -1.817424   -1.663011
