61 
4na9_ligand_dft.xyz
 C   -4.389223    0.000763   -0.742140
 C   -5.173200    0.837579   -1.541837
 C   -5.920272    0.339762   -2.602682
 C   -5.887078   -1.018786   -2.897784
 C   -5.112808   -1.867024   -2.118302
 C   -4.374354   -1.376901   -1.036020
 C    2.629115   -0.194963    0.660486
 C    1.602742   -1.106232    0.974818
 N    0.308905   -0.672343    1.194926
 C    0.043497    0.724953    1.488310
 C    0.837566    1.573263    0.492741
 C    2.346941    1.301371    0.610482
 C    4.212671   -2.045297    0.481850
 C    3.178510   -2.937736    0.780085
 C    1.897587   -2.478412    1.023394
 C    3.909737   -0.684730    0.424523
 C    5.593982   -2.544287    0.227758
 N    6.338052   -1.770942   -0.647790
 N    6.140212   -3.573089    0.762996
 C    3.093789    2.012839   -0.503150
 C   -1.444024    0.990821    1.406248
 C   -2.197635    0.410425    0.391954
 C   -3.574220    0.621619    0.336893
 C   -4.184102    1.455004    1.271355
 C   -3.433547    2.064899    2.282702
 C   -2.058686    1.815128    2.343739
 C    3.018202    1.550144   -1.820903
 C    3.667530    2.222516   -2.848794
 C    4.406654    3.372753   -2.576242
 C    4.490260    3.840423   -1.269844
 C    3.837177    3.162486   -0.242005
 N   -4.040712    2.931660    3.191120
 C   -3.655974   -2.361579   -0.172505
 O   -3.316355   -3.477948   -0.854767
 O   -3.410088   -2.242887    1.005128
 H   -5.170698    1.903586   -1.334272
 H   -6.518301    1.016175   -3.206062
 H   -6.459676   -1.417244   -3.729215
 H   -5.085850   -2.929119   -2.333680
 H   -0.313226   -1.330297    1.644039
 H    0.386175    0.982048    2.505957
 H    0.636685    2.635147    0.665573
 H    0.489494    1.334719   -0.519175
 H    2.684783    1.736364    1.561963
 H    3.375832   -4.006231    0.799939
 H    1.099959   -3.183396    1.244827
 H    4.703046    0.022850    0.198732
 H    7.216363   -2.202806   -0.903256
 H    5.837794   -1.358513   -1.422348
 H    5.525893   -3.961928    1.477014
 H   -1.711073   -0.230622   -0.336155
 H   -5.259362    1.612678    1.230035
 H   -1.466750    2.264002    3.139345
 H    2.454045    0.645731   -2.035461
 H    3.597418    1.848125   -3.866162
 H    4.915975    3.897300   -3.379253
 H    5.066368    4.733442   -1.045416
 H    3.910240    3.532500    0.778127
 H   -3.554848    3.029597    4.071745
 H   -5.028257    2.770666    3.332784
 H   -2.910708   -4.069893   -0.202050
