61 
4na9_ligand_aiqm1.xyz
 C   -4.611889    0.528248    0.026940
 C   -5.481519    1.619431   -0.080299
 C   -6.350983    1.744563   -1.159173
 C   -6.358602    0.780482   -2.164087
 C   -5.512692   -0.317614   -2.067737
 C   -4.661487   -0.463540   -0.969719
 C    2.501418   -0.733216    0.308550
 C    1.475728   -1.684624    0.480120
 N    0.216712   -1.297375    0.922820
 C    0.093742   -0.049043    1.663702
 C    0.785250    1.039365    0.856906
 C    2.275899    0.727563    0.690239
 C    3.986858   -2.496074   -0.486303
 C    2.956468   -3.423561   -0.319836
 C    1.716999   -3.024581    0.152201
 C    3.735919   -1.158508   -0.171109
 C    5.321715   -2.933657   -0.972253
 N    6.040415   -1.973167   -1.661549
 N    5.863746   -4.076215   -0.764130
 C    2.931474    1.689893   -0.283438
 C   -1.364163    0.240330    1.931827
 C   -2.282497    0.266624    0.885844
 C   -3.633270    0.494492    1.141701
 C   -4.059627    0.729836    2.450292
 C   -3.147344    0.712827    3.508950
 C   -1.797058    0.461176    3.239976
 C    2.516017    1.772996   -1.616844
 C    3.132355    2.659628   -2.494401
 C    4.171596    3.476893   -2.057476
 C    4.593096    3.403505   -0.733817
 C    3.973671    2.514867    0.145086
 N   -3.571118    1.003622    4.811971
 C   -3.863174   -1.716130   -0.849013
 O   -3.443390   -2.154808   -2.057052
 O   -3.628582   -2.311714    0.173791
 H   -5.457715    2.384764    0.685172
 H   -7.011185    2.599897   -1.220316
 H   -7.017995    0.882207   -3.015675
 H   -5.514732   -1.077558   -2.838459
 H   -0.339266   -2.049553    1.297896
 H    0.602857   -0.134550    2.641422
 H    0.659995    2.011578    1.338144
 H    0.306514    1.097645   -0.124656
 H    2.759082    0.870377    1.665039
 H    3.118562   -4.463800   -0.575080
 H    0.923148   -3.753429    0.271119
 H    4.534520   -0.436134   -0.285986
 H    6.867963   -2.343928   -2.099062
 H    5.513232   -1.330724   -2.228323
 H    5.280813   -4.645471   -0.158088
 H   -1.945588    0.071350   -0.125989
 H   -5.109531    0.915461    2.655015
 H   -1.083248    0.439869    4.058038
 H    1.712988    1.135252   -1.968591
 H    2.800481    2.712702   -3.523449
 H    4.647949    4.163250   -2.744191
 H    5.401022    4.031535   -0.381824
 H    4.304490    2.457654    1.176507
 H   -2.982265    0.601964    5.524916
 H   -4.539362    0.776847    4.979274
 H   -2.954313   -2.969615   -1.893935
