42 
4nbn_ligand_aiqm1.xyz
 C   22.439388   28.956532    6.650667
 N   23.748269   28.430089    6.274069
 C   24.905831   28.871421    6.846855
 C   21.424571   32.849189    5.071915
 C   26.145143   28.517071    6.315268
 C   22.303842   31.499062    6.872535
 C   21.598768   30.469412    4.820435
 C   21.253621   31.707299    4.292354
 C   21.948114   32.745232    6.352215
 C   22.119788   30.335086    6.109717
 C   27.282513   28.951999    7.000724
 N   27.187938   29.705016    8.118806
 C   25.954925   29.980757    8.522097
 N   24.797540   29.615251    7.966500
 N   28.525927   28.665859    6.531405
 C   29.736643   28.854119    7.318953
 C   30.456826   27.555107    7.588765
 C   31.704884   27.284030    7.035638
 C   32.369300   26.083513    7.280044
 C   31.768469   25.128556    8.092246
 C   30.519588   25.374371    8.652594
 C   29.869018   26.577870    8.398696
 O   28.634052   26.860713    8.915216
 O   22.789520   31.480293    8.142006
 H   22.371603   28.934834    7.735399
 H   21.700178   28.250435    6.269256
 H   23.836446   28.106688    5.324938
 H   21.154935   33.821344    4.678765
 H   26.218025   27.917378    5.413366
 H   21.448092   29.573517    4.225058
 H   20.852001   31.779130    3.291040
 H   22.091269   33.617345    6.978025
 H   25.871852   30.591463    9.413286
 H   28.576845   27.995898    5.782861
 H   29.444182   29.333126    8.249750
 H   30.409145   29.532089    6.780024
 H   32.162929   28.037712    6.405471
 H   33.339922   25.899869    6.842042
 H   32.266329   24.190519    8.294751
 H   30.050234   24.629542    9.287462
 H   28.370821   26.150186    9.504415
 H   23.420316   30.735782    8.233272
