42 
4nbn_ligand_xtb.xyz
 C   22.597731   29.053781    6.673883
 N   23.911536   28.685676    6.184387
 C   25.062535   29.036508    6.803627
 C   21.070795   32.717847    5.027115
 C   26.307285   28.685305    6.286308
 C   22.391248   31.587596    6.704426
 C   21.299452   30.342135    4.961936
 C   20.793183   31.505989    4.415725
 C   21.859893   32.757135    6.156872
 C   22.088088   30.357885    6.104925
 C   27.431398   29.025726    7.039464
 N   27.308764   29.679392    8.210655
 C   26.093770   29.973665    8.594502
 N   24.961124   29.698486    7.973009
 N   28.681267   28.762754    6.600145
 C   29.842135   28.857176    7.456643
 C   30.490066   27.516408    7.674398
 C   31.802696   27.278467    7.299419
 C   32.397414   26.043994    7.499034
 C   31.670632   25.020919    8.079604
 C   30.356855   25.234791    8.456250
 C   29.760044   26.473006    8.257130
 O   28.468079   26.706668    8.611638
 O   23.151477   31.715547    7.807542
 H   22.661311   29.102794    7.763657
 H   21.907080   28.250190    6.400836
 H   23.975896   28.370516    5.230188
 H   20.673361   33.635299    4.618872
 H   26.395197   28.161555    5.347087
 H   21.069867   29.390913    4.500361
 H   20.181143   31.467795    3.527344
 H   22.090110   33.690988    6.645585
 H   25.998819   30.511574    9.529857
 H   28.768466   28.182897    5.779777
 H   29.480252   29.268360    8.402955
 H   30.567563   29.549101    7.014240
 H   32.369759   28.080386    6.849250
 H   33.422406   25.882966    7.202703
 H   32.122089   24.053828    8.241803
 H   29.784677   24.437594    8.913399
 H   28.103406   25.931168    9.054217
 H   23.700731   30.909922    7.978132
