73 
4nct_ligand_dft.xyz
 O   -5.804114   -1.983593   -1.616814
 C   -5.343017   -0.873680   -1.409753
 N   -5.913633    0.308506   -1.816014
 C   -5.178479    1.493372   -1.434093
 C   -3.998505    0.898488   -0.712509
 C   -4.097689   -0.477612   -0.698916
 C   -3.101542   -1.263651   -0.087394
 C   -2.886335   -2.683251    0.077430
 C   -3.603605   -3.824324   -0.295826
 C   -3.091376   -5.069438    0.037374
 C   -1.879081   -5.191843    0.733710
 C   -1.147974   -4.075347    1.113080
 C   -1.668142   -2.823531    0.777240
 N    3.366086   -0.702916    0.047161
 C   -2.006623   -0.620380    0.522961
 C   -1.901579    0.780300    0.498984
 C   -2.900907    1.541177   -0.125807
 C   -2.488877    2.917601   -0.026847
 C   -3.069432    4.105060   -0.476929
 C   -2.408831    5.303916   -0.266505
 C   -1.172196    5.314310    0.388977
 C   -0.578524    4.147744    0.851127
 C   -1.246165    2.933869    0.652149
 N   -1.147169   -1.570653    1.037559
 C    0.344394    1.083588    1.526451
 C    1.308628    0.665926    0.372060
 O    0.635664    0.185502   -0.767136
 C    0.456604    1.123545   -1.807045
 C    1.039401    2.051928    2.482918
 O    0.003491   -0.022701    2.355367
 C    0.029509   -1.329839    1.853123
 C    1.347341   -1.703123    1.124422
 C    3.218400   -1.548773   -1.132765
 C    4.423687    0.148345    0.249724
 O    4.340469    1.099841    1.020932
 C    5.715677   -0.122977   -0.464595
 C    6.435569    0.972928   -0.943314
 C    7.669059    0.786863   -1.555597
 C    8.205466   -0.493810   -1.668274
 C    7.505247   -1.587509   -1.166082
 C    6.261501   -1.404018   -0.570621
 N   -0.909386    1.619616    0.992758
 C    2.203333   -0.457736    0.896611
 H   -6.794786    0.317924   -2.302351
 H   -5.770748    2.147897   -0.780209
 H   -4.868957    2.080325   -2.309873
 H   -4.540347   -3.711925   -0.831154
 H   -3.635264   -5.965548   -0.245110
 H   -1.500806   -6.180138    0.978731
 H   -0.206094   -4.179328    1.643989
 H   -4.026360    4.085871   -0.990056
 H   -2.845834    6.235046   -0.612760
 H   -0.657237    6.257564    0.544307
 H    0.376522    4.209566    1.351012
 H    1.923397    1.535450    0.112567
 H    1.427212    1.472060   -2.188993
 H   -0.133362    1.990717   -1.489725
 H   -0.079613    0.603648   -2.602719
 H    0.308548    2.513978    3.150195
 H    1.607046    2.819885    1.957504
 H    1.746673    1.482505    3.087240
 H   -0.074135   -1.952471    2.747168
 H    1.086415   -2.181653    0.179316
 H    1.910559   -2.425840    1.722768
 H    3.298905   -2.613309   -0.884733
 H    2.243661   -1.362069   -1.587688
 H    3.990075   -1.305358   -1.861962
 H    6.018963    1.967352   -0.820024
 H    8.217191    1.642635   -1.937650
 H    9.172851   -0.638578   -2.139809
 H    7.929616   -2.584450   -1.235831
 H    5.722286   -2.257477   -0.169745
 H    2.608640   -0.127256    1.853742
