73 
4nct_ligand_xtb.xyz
 O   -5.842360    3.009646    0.999493
 C   -5.513681    1.842172    0.971881
 N   -6.246851    0.822634    1.502346
 C   -5.660118   -0.483317    1.356974
 C   -4.389206   -0.167849    0.629269
 C   -4.311456    1.199269    0.404721
 C   -3.206287    1.738448   -0.265174
 C   -2.822545    3.063198   -0.647912
 C   -3.412532    4.313136   -0.489387
 C   -2.758555    5.414529   -1.001247
 C   -1.537046    5.287950   -1.662083
 C   -0.930889    4.057683   -1.828963
 C   -1.583170    2.943983   -1.318743
 N    3.165015    0.272041   -0.144316
 C   -2.176669    0.877527   -0.715923
 C   -2.249746   -0.490897   -0.475733
 C   -3.369611   -1.016856    0.206959
 C   -3.133596   -2.422010    0.340432
 C   -3.868978   -3.440011    0.935446
 C   -3.344606   -4.714827    0.958403
 C   -2.092414   -4.968355    0.407685
 C   -1.346353   -3.973336   -0.195446
 C   -1.873315   -2.687676   -0.255210
 N   -1.207626    1.620770   -1.345963
 C   -0.076338   -1.255952   -1.396156
 C    0.953231   -0.848933   -0.291679
 O    0.342667   -0.197576    0.805052
 C    0.143111   -0.994999    1.948082
 C    0.431448   -2.453146   -2.210936
 O   -0.226908   -0.238183   -2.374124
 C   -0.054098    1.105982   -2.042367
 C    1.251606    1.410104   -1.262756
 C    3.148116    1.220218    0.946479
 C    4.146643   -0.649929   -0.327202
 O    4.011886   -1.588626   -1.095081
 C    5.419783   -0.444501    0.425276
 C    5.929707   -1.486035    1.191489
 C    7.144485   -1.343694    1.837802
 C    7.867914   -0.170402    1.704258
 C    7.375934    0.860624    0.920618
 C    6.155079    0.728069    0.284291
 N   -1.368752   -1.510417   -0.781316
 C    1.967769    0.103243   -0.948148
 H   -7.131922    0.977620    1.953913
 H   -6.307658   -1.152801    0.776601
 H   -5.469729   -0.948063    2.332916
 H   -4.358235    4.397332    0.021834
 H   -3.196307    6.395451   -0.891757
 H   -1.052551    6.171515   -2.051795
 H    0.016120    3.970788   -2.340611
 H   -4.830950   -3.229376    1.375742
 H   -3.899102   -5.520620    1.415056
 H   -1.686663   -5.968060    0.453686
 H   -0.376231   -4.218744   -0.589131
 H    1.472605   -1.750654    0.053628
 H    1.098356   -1.367298    2.338352
 H   -0.516111   -1.845467    1.752469
 H   -0.323182   -0.344547    2.685935
 H   -0.405803   -2.971713   -2.668565
 H    1.020227   -3.138810   -1.611940
 H    1.068247   -2.071613   -3.004220
 H   -0.018451    1.601289   -3.025421
 H    0.981138    1.918628   -0.338515
 H    1.900956    2.059040   -1.849703
 H    3.310725    2.238994    0.585705
 H    2.183264    1.174502    1.451441
 H    3.930453    0.973292    1.661104
 H    5.366678   -2.403762    1.274043
 H    7.531234   -2.152431    2.439825
 H    8.819263   -0.062078    2.203516
 H    7.946175    1.770308    0.803781
 H    5.776436    1.526988   -0.336178
 H    2.300031   -0.373211   -1.878004
