17 
4nhy_ligand_xtb.xyz
 O  -12.178239   42.555152  -64.849057
 C  -12.431445   43.374553  -64.016120
 O  -13.695024   43.637352  -63.649260
 C  -11.364647   44.170818  -63.318649
 C  -11.564341   45.481839  -62.890993
 C  -10.506371   46.151420  -62.290053
 C  -10.112906   43.591457  -63.128870
 C   -9.132997   44.344693  -62.497370
 N   -9.327456   45.597065  -62.089410
 C   -7.757195   43.789847  -62.226438
 O   -6.947530   44.668049  -61.642897
 O   -7.436409   42.669903  -62.506374
 H  -13.760577   44.284367  -62.934155
 H  -12.501807   45.996681  -63.046479
 H  -10.609576   47.173818  -61.952695
 H   -9.905654   42.586087  -63.459196
 H   -7.433026   45.506499  -61.509884
