17 
4nhy_ligand_dft.xyz
 O   -2.633071   -1.711312   -0.482174
 C   -2.517764   -0.602491   -0.038630
 O   -3.574161    0.053659    0.479760
 C   -1.203280    0.134606   -0.036408
 C   -1.113554    1.523814   -0.123272
 C    0.146476    2.115662   -0.146742
 C   -0.027006   -0.608543    0.009603
 C    1.178262    0.080017    0.000045
 N    1.273078    1.411286   -0.076881
 C    2.489262   -0.669892    0.074713
 O    3.562881    0.118426    0.040972
 O    2.545562   -1.869169    0.158752
 H   -3.291189    0.856500    0.937151
 H   -1.995827    2.151221   -0.212026
 H    0.252008    3.193814   -0.227067
 H   -0.041966   -1.691499    0.053387
 H    3.241354    1.039098   -0.027627
