17 
4nhy_ligand_aiqm1.xyz
 O  -12.171813   42.435990  -64.723354
 C  -12.428216   43.347161  -63.991389
 O  -13.707786   43.690207  -63.731775
 C  -11.366254   44.168708  -63.304502
 C  -11.576737   45.474556  -62.868561
 C  -10.526921   46.159324  -62.260626
 C  -10.107922   43.603144  -63.121515
 C   -9.130154   44.362283  -62.493937
 N   -9.325744   45.613092  -62.066851
 C   -7.749272   43.797840  -62.255982
 O   -6.915414   44.649363  -61.656785
 O   -7.437564   42.683717  -62.576301
 H  -13.739090   44.357232  -63.039485
 H  -12.518832   45.986095  -63.024455
 H  -10.659095   47.178922  -61.920998
 H   -9.890981   42.602782  -63.464375
 H   -7.413405   45.469183  -61.507009
