17 
4nhy_ligand_ani-2x.xyz
 O  -12.188927   42.560087  -64.867572
 C  -12.421618   43.378862  -64.020605
 O  -13.687790   43.633857  -63.631654
 C  -11.358652   44.183242  -63.326005
 C  -11.566583   45.499737  -62.915552
 C  -10.520555   46.182329  -62.302530
 C  -10.109712   43.609667  -63.126737
 C   -9.140360   44.369243  -62.492578
 N   -9.328738   45.626881  -62.083852
 C   -7.773317   43.782952  -62.232888
 O   -6.937907   44.620348  -61.615686
 O   -7.469509   42.663144  -62.554623
 H  -13.684812   44.201545  -62.848655
 H  -12.509639   46.007971  -63.098478
 H  -10.650169   47.208182  -61.966030
 H   -9.886509   42.598723  -63.451834
 H   -7.430403   45.452830  -61.472623
