57 
4nka_ligand_aiqm1.xyz
 C   84.921542    3.283050   12.898281
 C   84.385421    3.415772   11.581450
 C   85.312149    4.158335   10.929944
 N   88.451633   -0.701570    9.918000
 C   84.876327    0.395697    6.978924
 C   85.743974    0.847274    7.990291
 C   87.507549    0.210413    9.592280
 C   87.526748    1.167479   10.584241
 C   88.545179    0.743113   11.472638
 C   88.968475    1.388798   12.753119
 C   88.201809    0.835374   13.966409
 C   88.606768    1.531867   15.240326
 C   89.405722    0.903941   16.190696
 C   89.811213    1.592235   17.334230
 C   88.204246    2.852956   15.464703
 C   87.382575    5.464142   15.950049
 C   90.716504    4.605071   18.497133
 O   89.798000    3.537316   18.709416
 C   89.415648    2.902286   17.554753
 C   88.594273    3.540140   16.607723
 O   88.237102    4.823709   16.883172
 N   89.105231   -0.393382   11.068263
 N   86.747638    0.026762    8.440292
 C   83.891252    1.278358    6.585091
 N   83.735695    2.500332    7.111547
 N   85.640427    2.066278    8.523178
 C   84.630536    2.819157    8.057793
 N   84.484112    4.046715    8.631566
 C   85.463758    4.626002    9.517048
 O   86.322525    4.471875   11.755734
 N   86.067651    3.911573   13.001369
 C   84.389355    2.550650   14.084386
 H   83.483279    2.994961   11.171149
 H   88.741076   -1.503231    9.390190
 H   84.968594   -0.586039    6.537705
 H   86.916928    2.052341   10.646188
 H   90.038185    1.224530   12.899890
 H   88.806679    2.469480   12.698361
 H   87.128311    0.976946   13.801430
 H   88.376602   -0.239028   14.057415
 H   89.728314   -0.117646   16.034705
 H   90.439157    1.117404   18.078894
 H   87.590886    3.340849   14.722135
 H   87.238217    6.473816   16.322760
 H   87.826821    5.496963   14.953915
 H   86.418177    4.956185   15.887785
 H   90.946298    5.011231   19.479892
 H   91.631071    4.231850   18.027546
 H   90.275005    5.379486   17.869222
 H   86.745622   -0.897756    8.044934
 H   83.183554    1.000775    5.814494
 H   83.762969    4.626057    8.241774
 H   86.473510    4.372218    9.188284
 H   85.372377    5.712693    9.488521
 H   85.125071    2.594465   14.884718
 H   83.459309    2.994854   14.438129
 H   84.198948    1.505882   13.842922
