49 
4nks_ligand_aiqm1.xyz
 C   84.745881    2.319184   14.577254
 C   85.179960    3.179720   13.439976
 C   84.523771    3.467842   12.204736
 C   85.396690    4.275245   11.556050
 C   85.421863    4.906212   10.200929
 N   84.373287    4.412441    9.341411
 C   84.539124    3.302762    8.556273
 N   83.649067    3.146095    7.568089
 C   83.827324    2.040219    6.829168
 C   84.828875    1.122843    7.058398
 C   85.689313    1.391660    8.143167
 N   86.695083    0.517084    8.436920
 C   87.470261    0.445924    9.595333
 C   87.468384    1.262015   10.745091
 C   88.411574    0.688445   11.578618
 C   88.898260    1.069468   12.939527
 C   89.881546    2.249713   12.910990
 C   90.316195    2.630830   14.302259
 C   91.524700    2.171792   14.830007
 C   91.903583    2.492628   16.131242
 C   91.074561    3.280503   16.924675
 C   89.869917    3.747943   16.406009
 C   89.491329    3.425153   15.105696
 N   88.903979   -0.376548   10.903086
 N   88.342648   -0.555815    9.688975
 N   85.559108    2.496630    8.885941
 O   86.487509    4.486636   12.312714
 N   86.342552    3.784872   13.506740
 H   85.603807    2.122962   15.215801
 H   83.974265    2.810359   15.169891
 H   84.343529    1.372697   14.221012
 H   83.583192    3.100394   11.831876
 H   86.403892    4.710215    9.764516
 H   85.319797    5.986994   10.310620
 H   83.675680    5.056630    9.014360
 H   83.123924    1.894125    6.019114
 H   84.943069    0.239607    6.447499
 H   86.777630   -0.284785    7.834813
 H   86.879556    2.144764   10.921392
 H   88.044727    1.344699   13.562327
 H   89.374198    0.203150   13.411386
 H   90.755168    1.989885   12.305116
 H   89.393523    3.102732   12.433222
 H   92.176957    1.559505   14.215558
 H   92.845010    2.127660   16.522475
 H   91.367775    3.531716   17.935613
 H   89.224663    4.367246   17.015751
 H   88.553559    3.790218   14.702227
 H   89.616737   -1.010269   11.214154
