49 
4nks_ligand_ani-2x.xyz
 C   84.773184    1.168428   13.961022
 C   85.185940    2.395730   13.207995
 C   84.757916    2.803806   11.915693
 C   85.470949    3.931032   11.673675
 C   85.638785    4.881231   10.531993
 N   84.741018    4.633849    9.419883
 C   84.925755    3.582739    8.569551
 N   84.332646    3.670619    7.371667
 C   84.460942    2.585745    6.602055
 C   85.134402    1.443115    6.991096
 C   85.722638    1.480998    8.268220
 N   86.384899    0.390071    8.771245
 C   86.955348    0.296984   10.043426
 C   87.550666    1.319173   10.820798
 C   88.017301    0.682543   11.949503
 C   88.756873    1.159691   13.165271
 C   89.477277    2.495324   12.948269
 C   90.164722    2.982256   14.201129
 C   91.537581    2.807236   14.375979
 C   92.167728    3.218897   15.547472
 C   91.425988    3.813173   16.563088
 C   90.054477    3.988799   16.400323
 C   89.426490    3.573512   15.230036
 N   87.673515   -0.620291   11.796906
 N   87.049481   -0.889598   10.629305
 N   85.661502    2.562404    9.037752
 O   86.229509    4.220809   12.740571
 N   86.057083    3.246809   13.704934
 H   85.285950    1.117628   14.924373
 H   83.692855    1.167196   14.136124
 H   85.015806    0.266264   13.388917
 H   84.059045    2.304708   11.264023
 H   86.694187    4.852696   10.215890
 H   85.451662    5.895597   10.896426
 H   84.337540    5.439104    8.964048
 H   83.985074    2.640992    5.624483
 H   85.213637    0.569118    6.353277
 H   86.251176   -0.502374    8.317756
 H   87.567966    2.366059   10.560541
 H   88.047105    1.249231   13.998397
 H   89.481409    0.394504   13.468870
 H   90.211369    2.377231   12.143677
 H   88.754845    3.247006   12.609121
 H   92.124598    2.347501   13.582756
 H   93.239643    3.076989   15.664479
 H   91.913119    4.137820   17.479324
 H   89.469946    4.450096   17.192804
 H   88.351837    3.703903   15.116316
 H   87.913618   -1.384354   12.407542
