13 
4nni_ligand_aiqm1.xyz
 C   15.487516    6.511855   22.178261
 C   15.317689    4.636984   23.438052
 C   16.681737    4.396413   23.264528
 C   14.819985    7.731894   21.591106
 C   16.852905    6.275937   22.016408
 O   14.018575    8.397960   22.171118
 O   15.218752    8.055371   20.332804
 N   14.714973    5.696713   22.901309
 N   17.460858    5.217452   22.560112
 H   14.703534    3.965306   24.023234
 H   17.152608    3.528206   23.707273
 H   17.482652    6.966509   21.467555
 H   15.766417    7.353600   19.967939
