13 
4nni_ligand_dft.xyz
 C    0.190717   -0.057734    0.001637
 C   -1.786666   -1.128486    0.231046
 C   -2.464782    0.070586   -0.001447
 C    1.699205   -0.137488   -0.040539
 C   -0.488828    1.136995   -0.240238
 O    2.296188   -1.069166   -0.496679
 O    2.350055    0.945202    0.441604
 N   -0.460836   -1.201993    0.226748
 N   -1.820960    1.208408   -0.246563
 H   -2.330896   -2.049829    0.420733
 H   -3.550838    0.108403    0.006081
 H    0.045160    2.058162   -0.466555
 H    1.741321    1.526829    0.916298
