77 
4nnn_ligand_ani-2x.xyz
 C   -2.353279   -0.659980    0.525262
 O   -2.196442   -1.579340    1.311739
 O   -2.817398    0.560546    0.866481
 C   -2.920295    0.778980    2.289585
 C   -3.553304    2.124057    2.523028
 C   -2.893149    3.104670    3.263960
 C   -3.500578    4.337925    3.490083
 C   -4.767737    4.596581    2.976776
 C   -5.425944    3.622360    2.230828
 C   -4.816946    2.393274    2.001733
 N   -2.094041   -0.711204   -0.814254
 C   -1.244579   -1.788614   -1.311569
 C    0.194869   -1.524098   -0.834083
 O    0.974577   -0.843016   -1.499130
 C   -1.305668   -1.896583   -2.831891
 C   -2.699360   -2.190393   -3.402315
 C   -3.227881   -3.558959   -2.966223
 C   -2.660709   -2.103583   -4.929006
 N    0.484881   -2.040671    0.383896
 C    1.692698   -1.740818    1.154864
 C    1.696500   -0.300779    1.692334
 O    1.859439   -0.091389    2.897900
 C    2.999841   -2.066140    0.420132
 C    3.137427   -3.519152   -0.052054
 C    3.035937   -4.521788    1.097386
 C    4.465945   -3.686110   -0.790611
 N    1.527662    0.684690    0.793513
 C    1.515291    2.097709    1.152146
 C    0.202666    2.491791    1.850820
 C    1.732171    2.949159   -0.095890
 C    2.943913    2.584353   -0.967017
 C    4.246695    2.569028   -0.164893
 C    3.046579    3.561801   -2.138926
 O    0.103330    2.027181    3.176612
 H   -3.504047   -0.042930    2.717869
 H   -1.913579    0.755722    2.726618
 H   -1.893653    2.897168    3.645726
 H   -2.985643    5.099695    4.070414
 H   -5.241886    5.558563    3.155979
 H   -6.415040    3.821059    1.824241
 H   -5.318536    1.634048    1.405827
 H   -1.951841    0.197544   -1.236574
 H   -1.603648   -2.705552   -0.832354
 H   -0.605104   -2.679393   -3.153094
 H   -0.921060   -0.957203   -3.249726
 H   -3.388790   -1.420301   -3.028809
 H   -3.332851   -3.636596   -1.878265
 H   -4.213855   -3.749964   -3.404917
 H   -2.554153   -4.360008   -3.298434
 H   -2.317817   -1.118796   -5.266688
 H   -3.652020   -2.281859   -5.360688
 H   -1.975966   -2.856637   -5.340662
 H   -0.327670   -2.286737    0.941058
 H    1.631258   -2.352605    2.057489
 H    3.825584   -1.830192    1.107133
 H    3.100532   -1.402533   -0.444616
 H    2.325089   -3.726818   -0.759882
 H    2.057574   -4.488073    1.589190
 H    3.181935   -5.543594    0.729730
 H    3.805063   -4.327401    1.856913
 H    4.580055   -4.705986   -1.174429
 H    4.537819   -2.995597   -1.638653
 H    5.309978   -3.483617   -0.118631
 H    1.435204    0.428759   -0.186917
 H    2.317411    2.267743    1.882546
 H    0.126444    3.588234    1.875696
 H   -0.652454    2.116297    1.265151
 H    1.830307    3.997579    0.220945
 H    0.822318    2.903291   -0.716841
 H    2.782824    1.578095   -1.385904
 H    5.098147    2.331903   -0.812215
 H    4.224486    1.826617    0.640341
 H    4.435779    3.552299    0.285619
 H    3.220193    4.582468   -1.775563
 H    2.127651    3.569282   -2.736132
 H    3.878170    3.297677   -2.801639
 H    0.732776    1.286965    3.302330
