77 
4nnn_ligand_xtb.xyz
 C   -2.303432   -0.698634    0.704766
 O   -2.066081   -1.625043    1.450564
 O   -2.834607    0.470637    1.076929
 C   -3.083412    0.624959    2.485152
 C   -3.820980    1.917074    2.684169
 C   -3.129340    3.069756    3.033006
 C   -3.810628    4.263852    3.195521
 C   -5.181314    4.316382    3.007310
 C   -5.873056    3.170171    2.653303
 C   -5.195349    1.974926    2.491858
 N   -2.075091   -0.725726   -0.630557
 C   -1.284254   -1.786660   -1.236218
 C    0.176821   -1.504260   -0.840396
 O    0.913652   -0.830136   -1.545628
 C   -1.458584   -1.795564   -2.749449
 C   -2.906659   -1.991731   -3.210522
 C   -3.432116   -3.375901   -2.837510
 C   -2.989281   -1.788927   -4.722226
 N    0.496674   -2.002318    0.362779
 C    1.718303   -1.721076    1.112166
 C    1.699472   -0.266943    1.610038
 O    1.614062   -0.006846    2.800474
 C    2.983538   -2.040469    0.310760
 C    3.116138   -3.531637   -0.025668
 C    3.491195   -4.357871    1.201893
 C    4.166397   -3.715483   -1.119470
 N    1.766923    0.655494    0.646455
 C    1.702002    2.087302    0.901015
 C    0.295020    2.486608    1.386569
 C    2.101623    2.822330   -0.375901
 C    3.541338    2.541356   -0.827541
 C    4.556675    3.200514    0.102586
 C    3.736594    3.042843   -2.257101
 O    0.136292    2.336933    2.771428
 H   -3.666478   -0.234653    2.832859
 H   -2.122317    0.636081    3.009648
 H   -2.060030    3.027517    3.177311
 H   -3.268505    5.156398    3.470958
 H   -5.711410    5.248784    3.136330
 H   -6.942501    3.207177    2.504994
 H   -5.734690    1.079982    2.216325
 H   -2.168508    0.139855   -1.139382
 H   -1.609297   -2.731348   -0.791257
 H   -0.834908   -2.594221   -3.155835
 H   -1.071096   -0.851380   -3.139212
 H   -3.535918   -1.239930   -2.722649
 H   -3.484891   -3.499453   -1.759144
 H   -4.432571   -3.517260   -3.239582
 H   -2.787163   -4.150982   -3.246289
 H   -2.640048   -0.797068   -4.999797
 H   -4.014821   -1.898895   -5.066221
 H   -2.374684   -2.524602   -5.236337
 H   -0.275630   -2.358142    0.917259
 H    1.681820   -2.347775    2.007212
 H    3.848671   -1.718223    0.893964
 H    2.968077   -1.473861   -0.619898
 H    2.152141   -3.884049   -0.408933
 H    2.738422   -4.278069    1.981563
 H    3.586733   -5.407479    0.933683
 H    4.442919   -4.020758    1.607238
 H    4.271368   -4.767291   -1.374803
 H    3.884075   -3.171229   -2.017667
 H    5.132670   -3.346759   -0.781823
 H    1.706798    0.353158   -0.322005
 H    2.401294    2.317439    1.714019
 H    0.105830    3.542393    1.171245
 H   -0.454919    1.888483    0.842306
 H    1.982694    3.895470   -0.218019
 H    1.411972    2.522300   -1.169313
 H    3.710620    1.459662   -0.816373
 H    5.567874    3.010758   -0.249747
 H    4.475359    2.812050    1.114159
 H    4.401363    4.276943    0.132623
 H    3.551471    4.113558   -2.312180
 H    3.054086    2.539250   -2.937734
 H    4.753706    2.853714   -2.591681
 H    0.591987    1.516639    3.042031
