91 
4no8_ligand_dft.xyz
 C   -2.591783    1.901621   -0.829262
 O   -2.133582    2.188187   -1.933163
 O   -3.832786    1.425236   -0.633569
 C   -4.434573    0.766298   -1.764824
 C   -4.024254   -0.685458   -1.786122
 C   -2.716937   -1.038175   -2.135054
 C   -2.289698   -2.358093   -2.050220
 C   -3.174662   -3.349300   -1.626785
 C   -4.488824   -3.013927   -1.310266
 C   -4.908320   -1.686563   -1.385250
 N   -1.915618    2.023760    0.330121
 C   -0.564270    2.565009    0.381409
 C    0.489053    1.495675    0.003060
 O    1.378420    1.142240    0.775228
 C   -0.297963    3.190406    1.747566
 C    1.000086    4.005274    1.862884
 C    1.093280    4.605562    3.267999
 C    1.108782    5.103214    0.801037
 N    0.348305    1.026159   -1.257103
 C    1.334923    0.248061   -1.998729
 C    1.470196   -1.200729   -1.507153
 O    1.131704   -2.139145   -2.239787
 C    2.700305    0.948831   -2.091315
 C    2.637811    2.396584   -2.595393
 C    4.051783    2.978986   -2.657247
 C    1.933989    2.521486   -3.948872
 C    1.123941   -3.390422    0.805852
 O    0.257839   -3.812865   -0.224736
 C    2.377668   -2.679265    0.250032
 C    3.512826   -2.527141    1.271840
 C    4.925880   -2.499796    0.668426
 C    5.959103   -2.383396    1.792342
 C    5.132430   -1.383954   -0.359702
 N    2.024418   -1.372893   -0.298694
 C    0.425073   -2.447437    1.795166
 O    0.975797   -2.109731    2.832167
 C   -1.665652   -1.131512    2.003739
 C   -1.257966   -0.276458    3.034574
 C   -2.183130    0.598659    3.597976
 C   -3.501529    0.645378    3.147490
 C   -3.896986   -0.208868    2.119256
 C   -2.988127   -1.092415    1.553713
 N   -0.792618   -2.022423    1.365676
 H   -4.140682    1.290926   -2.675959
 H   -5.509533    0.875147   -1.612658
 H   -2.026758   -0.270984   -2.470117
 H   -1.266753   -2.602546   -2.317821
 H   -2.836165   -4.377689   -1.547015
 H   -5.185664   -3.782479   -0.989689
 H   -5.929499   -1.427334   -1.115701
 H   -2.323662    1.625023    1.167783
 H   -0.519399    3.336697   -0.394576
 H   -0.284999    2.394625    2.499847
 H   -1.152432    3.842525    1.974778
 H    1.837568    3.312601    1.733235
 H    0.285514    5.328285    3.440885
 H    2.045293    5.128499    3.408523
 H    1.020830    3.828237    4.036686
 H    1.995517    5.721088    0.978142
 H    1.199059    4.694727   -0.211990
 H    0.231776    5.763199    0.822005
 H   -0.413666    1.434612   -1.795171
 H    0.920166    0.139546   -3.002455
 H    3.332213    0.351633   -2.763139
 H    3.184790    0.938507   -1.110741
 H    2.067712    2.981969   -1.860605
 H    4.556612    2.896786   -1.688362
 H    4.028693    4.037324   -2.938214
 H    4.660012    2.447410   -3.399444
 H    1.992329    3.549168   -4.322527
 H    2.403168    1.867199   -4.694460
 H    0.872117    2.259167   -3.887919
 H    1.442769   -4.271129    1.375959
 H    0.559142   -3.409113   -1.063925
 H    2.728657   -3.294771   -0.588542
 H    3.339417   -1.627267    1.874122
 H    3.456233   -3.360058    1.980292
 H    5.086027   -3.461128    0.158199
 H    5.841202   -3.183628    2.531354
 H    6.978887   -2.435767    1.395801
 H    5.850939   -1.425755    2.316260
 H    4.921893   -0.403002    0.085079
 H    4.484206   -1.501872   -1.232841
 H    6.169986   -1.375259   -0.711965
 H    2.105686   -0.545533    0.293296
 H   -0.234968   -0.309691    3.383045
 H   -1.860936    1.259496    4.397794
 H   -4.210712    1.336984    3.591355
 H   -4.913434   -0.180119    1.739923
 H   -3.299783   -1.756102    0.753670
 H   -1.114646   -2.482555    0.519680
