91 
4no8_ligand_xtb.xyz
 C   -1.913650    1.822547    0.111797
 O   -1.971128    2.398519   -0.958005
 O   -2.876454    1.023900    0.600068
 C   -3.983702    0.763894   -0.252707
 C   -3.816480   -0.500296   -1.056421
 C   -2.563022   -0.978615   -1.407717
 C   -2.433986   -2.133400   -2.160013
 C   -3.562073   -2.821551   -2.569996
 C   -4.818247   -2.348243   -2.227513
 C   -4.944498   -1.194940   -1.475316
 N   -0.882257    1.931185    0.974007
 C    0.289728    2.718430    0.629795
 C    1.263599    1.815149   -0.140301
 O    2.366005    1.516064    0.293291
 C    0.928267    3.285181    1.894520
 C    1.968256    4.376515    1.613457
 C    2.784420    4.640353    2.877449
 C    1.312253    5.671568    1.140690
 N    0.740329    1.354769   -1.286421
 C    1.319626    0.355560   -2.176528
 C    1.360456   -1.034062   -1.519772
 O    0.808865   -1.992953   -2.053209
 C    2.718255    0.753279   -2.667201
 C    2.730880    2.064294   -3.462864
 C    4.175062    2.526300   -3.648235
 C    2.051026    1.913729   -4.821350
 C    0.907856   -2.914895    0.870306
 O    0.376364   -3.773841   -0.105135
 C    2.245721   -2.276122    0.433150
 C    3.121433   -1.900042    1.630830
 C    4.626615   -1.873962    1.334652
 C    5.382183   -1.565620    2.626478
 C    5.000883   -0.855553    0.260912
 N    2.041529   -1.091266   -0.381327
 C   -0.140853   -1.887615    1.348426
 O    0.139683   -0.782519    1.775957
 C   -2.592406   -1.959031    1.776110
 C   -2.666959   -0.944169    2.723339
 C   -3.898721   -0.547719    3.209456
 C   -5.059904   -1.156275    2.765286
 C   -4.984749   -2.179304    1.833952
 C   -3.759261   -2.583413    1.342897
 N   -1.375892   -2.422470    1.271363
 H   -4.114910    1.616821   -0.932727
 H   -4.852868    0.683733    0.404754
 H   -1.673563   -0.455191   -1.087957
 H   -1.448984   -2.484529   -2.427104
 H   -3.463060   -3.723526   -3.155445
 H   -5.702722   -2.880766   -2.545487
 H   -5.924301   -0.827314   -1.206662
 H   -0.767697    1.207526    1.672867
 H   -0.057956    3.518504   -0.032433
 H    1.411693    2.459935    2.420728
 H    0.140045    3.687712    2.533269
 H    2.645721    4.013983    0.834673
 H    2.135390    4.970075    3.686205
 H    3.527375    5.413580    2.697024
 H    3.300190    3.737515    3.194385
 H    2.069332    6.430782    0.958371
 H    0.755404    5.525847    0.218664
 H    0.628219    6.046883    1.899224
 H   -0.171845    1.713197   -1.544824
 H    0.643082    0.265799   -3.030636
 H    3.105302   -0.056057   -3.290105
 H    3.373233    0.864173   -1.803095
 H    2.196786    2.825147   -2.883068
 H    4.656760    2.676139   -2.684864
 H    4.207905    3.464198   -4.197449
 H    4.741742    1.782904   -4.204924
 H    2.118165    2.844905   -5.379088
 H    2.535347    1.131572   -5.402334
 H    0.998772    1.663467   -4.715290
 H    1.102140   -3.554900    1.744186
 H    0.454098   -3.308847   -0.971196
 H    2.753562   -3.038589   -0.176594
 H    2.798922   -0.925451    2.001628
 H    2.952354   -2.624938    2.429251
 H    4.924610   -2.870914    0.988591
 H    5.143611   -2.292900    3.399284
 H    6.455785   -1.588699    2.455686
 H    5.113942   -0.576424    2.990131
 H    4.633842    0.132312    0.529397
 H    4.590316   -1.136217   -0.705317
 H    6.083243   -0.802482    0.162415
 H    2.398689   -0.218161    0.006182
 H   -1.764011   -0.477796    3.080374
 H   -3.949472    0.243151    3.942787
 H   -6.019373   -0.840388    3.147235
 H   -5.884369   -2.665564    1.486958
 H   -3.698268   -3.378719    0.614062
 H   -1.408547   -3.293010    0.744576
