87 
4no9_ligand_aiqm1.xyz
 C   -2.604071   -0.558594   -0.595983
 O   -2.666493   -0.283432   -1.780996
 O   -2.729800   -1.786870   -0.100338
 C   -2.830659   -2.835820   -1.095248
 C   -2.898622   -4.131648   -0.343654
 C   -3.939851   -4.363676    0.556861
 C   -4.003363   -5.559552    1.264729
 C   -3.027156   -6.535969    1.078989
 C   -1.986631   -6.311831    0.183233
 C   -1.919965   -5.111297   -0.525053
 N   -2.404808    0.353325    0.387314
 C   -2.077957    1.735439    0.081475
 C   -0.585820    1.814722   -0.306401
 O    0.266121    2.182397    0.504087
 C   -2.383957    2.668314    1.243534
 C   -3.868292    2.874063    1.559031
 C   -4.511369    1.687892    2.277863
 C   -4.027416    4.128740    2.420412
 N   -0.324455    1.421305   -1.562731
 C    1.011537    1.328813   -2.170222
 C    1.777252    0.152074   -1.538892
 O    1.899654   -0.907171   -2.151525
 C    1.771081    2.655207   -2.134496
 C    0.991503    3.852128   -2.684184
 C    1.851991    5.109061   -2.578712
 C    0.536994    3.645634   -4.127072
 N    2.224839    0.354987   -0.294862
 C    2.689823   -0.710451    0.597144
 C    4.074812   -0.377422    1.146763
 C    5.125454   -0.023987    0.094771
 C    5.298035   -1.124100   -0.950323
 C    6.459670    0.271944    0.775309
 C    1.665819   -0.893877    1.737051
 C    0.330696   -1.492189    1.269629
 C   -0.625783   -1.640368    2.459421
 C    0.491290   -2.849105    0.558319
 O    0.279756   -2.782896   -0.836943
 O    1.468905    0.330525    2.448844
 H   -1.958493   -2.792184   -1.744880
 H   -3.728608   -2.654481   -1.689123
 H   -4.695386   -3.601793    0.711326
 H   -4.812372   -5.727906    1.964249
 H   -3.077401   -7.464163    1.632603
 H   -1.222461   -7.064565    0.037612
 H   -1.095100   -4.915372   -1.197649
 H   -2.189120   -0.002352    1.303257
 H   -2.666929    2.010829   -0.791221
 H   -1.856587    2.309993    2.130496
 H   -1.941293    3.637947    0.999934
 H   -4.397695    3.037061    0.612985
 H   -5.546457    1.920294    2.533455
 H   -4.510824    0.783526    1.669858
 H   -3.979142    1.476445    3.210026
 H   -3.623377    5.012507    1.923356
 H   -5.077586    4.316445    2.647051
 H   -3.496991    4.002110    3.367515
 H   -1.084699    0.954489   -2.042871
 H    0.844814    1.042757   -3.204501
 H    2.689201    2.522387   -2.715462
 H    2.067799    2.887003   -1.111083
 H    0.102975    3.993441   -2.057486
 H    2.734851    5.019032   -3.217682
 H    1.295599    5.990747   -2.898889
 H    2.188793    5.271175   -1.554440
 H   -0.144286    2.799181   -4.232535
 H    0.017976    4.533733   -4.491322
 H    1.398039    3.474306   -4.779660
 H    1.993402    1.237748    0.136048
 H    2.735419   -1.625495    0.005932
 H    3.975193    0.454265    1.850222
 H    4.424993   -1.240384    1.722894
 H    4.796927    0.886768   -0.420251
 H    4.390530   -1.291969   -1.532138
 H    6.097617   -0.863192   -1.647312
 H    5.579293   -2.066590   -0.469279
 H    6.357256    1.049486    1.534346
 H    7.204967    0.600236    0.048891
 H    6.842414   -0.629436    1.262882
 H    2.113910   -1.572626    2.467197
 H   -0.100633   -0.799006    0.546145
 H   -0.787492   -0.684439    2.960694
 H   -1.584793   -2.034646    2.131376
 H   -0.207689   -2.333030    3.192374
 H   -0.280605   -3.525924    0.919693
 H    1.464344   -3.302931    0.804739
 H    0.967685   -2.269165   -1.281385
 H    0.982755    0.951620    1.884669
