34 
4nrb_ligand_xtb.xyz
 C   25.038023   11.113047    0.149806
 N   26.021670   10.060599    0.159674
 C   25.908791    8.981341    0.962213
 C   27.011593    7.969746    0.884593
 C   26.675404    6.694215    1.328157
 C   27.588173    5.658704    1.332415
 C   28.876287    5.899677    0.892038
 C   29.242494    7.162188    0.460780
 C   28.326453    8.209757    0.446799
 O   28.633563    9.470951    0.011839
 C   29.981580    9.875876   -0.171657
 C   29.942260   11.237757   -0.867312
 C   31.368599   11.774195   -1.006315
 O   32.013642   11.879718    0.239138
 C   32.103688   10.637740    0.894317
 C   30.725016   10.029024    1.158324
 O   24.944629    8.802426    1.686218
 H   24.221722   10.805967    0.802078
 H   25.462322   12.049433    0.519917
 H   24.656283   11.269944   -0.860973
 H   26.865943   10.190446   -0.373352
 H   25.664619    6.546386    1.677715
 H   27.300792    4.677789    1.677327
 H   29.609929    5.107137    0.884752
 H   30.256180    7.318254    0.126616
 H   30.508605    9.161462   -0.821938
 H   29.351293   11.924322   -0.259243
 H   29.477894   11.148841   -1.849776
 H   31.362594   12.781692   -1.425811
 H   31.945972   11.113168   -1.673130
 H   32.625408   10.832578    1.832848
 H   32.705032    9.938505    0.290235
 H   30.830854    9.068347    1.662922
 H   30.148292   10.695766    1.802088
