34 
4nrb_ligand_ani-2x.xyz
 C   24.952910   11.137665    0.193378
 N   26.001916   10.146263    0.264897
 C   25.796929    8.929335    0.820567
 C   26.967203    7.964608    0.858206
 C   26.626627    6.662439    1.229440
 C   27.565170    5.641749    1.290498
 C   28.886650    5.930396    0.979991
 C   29.267452    7.220104    0.625273
 C   28.319508    8.247315    0.569305
 O   28.659798    9.531772    0.237670
 C   30.006201    9.884214   -0.091517
 C   29.939832   11.220725   -0.819882
 C   31.346628   11.740206   -1.091614
 O   32.088181   11.866634    0.105611
 C   32.228217   10.626058    0.768875
 C   30.875498   10.037113    1.157292
 O   24.707718    8.580999    1.264034
 H   24.034759   10.678479    0.564921
 H   25.187636   12.010667    0.813402
 H   24.796169   11.465571   -0.839770
 H   26.936266   10.367324   -0.039383
 H   25.582283    6.482030    1.466134
 H   27.267403    4.636953    1.574855
 H   29.639842    5.147746    1.013625
 H   30.310157    7.410267    0.395850
 H   30.428719    9.129306   -0.768989
 H   29.410282   11.942053   -0.183816
 H   29.376504   11.120701   -1.755810
 H   31.323666   12.734725   -1.546722
 H   31.870782   11.059774   -1.786533
 H   32.842344   10.817676    1.653448
 H   32.774223    9.916295    0.121939
 H   31.009131    9.081962    1.677258
 H   30.368998   10.717873    1.850866
