16 
4nro_ligand_dft.xyz
 C   -2.459970    0.407641    0.000066
 O   -3.548259   -0.355108    0.000153
 O   -2.464900    1.608961    0.000079
 C   -1.157089   -0.424855   -0.000071
 O   -1.259331   -1.635809   -0.000056
 C    0.134635    0.330361   -0.000219
 C    1.345730   -0.587969   -0.000212
 C    2.646859    0.198030    0.000033
 O    3.770576   -0.550072    0.000244
 O    2.713596    1.396892   -0.000023
 H   -3.241952   -1.282677    0.000084
 H    0.142624    1.006783    0.862793
 H    0.142469    1.006544   -0.863430
 H    1.325292   -1.248438   -0.876170
 H    1.325034   -1.248736    0.875518
 H    3.552082   -1.491636    0.000456
