16 
4nro_ligand_xtb.xyz
 C   12.502700   20.547170   16.917796
 O   11.544741   19.641901   16.803194
 O   13.367213   20.539387   17.745532
 C   12.360327   21.653208   15.840782
 O   11.401443   21.590844   15.102144
 C   13.433559   22.679541   15.815511
 C   13.101589   23.881429   14.935943
 C   14.323676   24.362794   14.167675
 O   14.152902   25.517100   13.506326
 O   15.360142   23.769731   14.124291
 H   10.959596   19.896789   16.057303
 H   14.334462   22.192341   15.415501
 H   13.683660   22.956073   16.841174
 H   12.690473   24.701472   15.528771
 H   12.344845   23.582996   14.201214
 H   13.266972   25.889124   13.608443
