16 
4nro_ligand_aiqm1.xyz
 C   12.538927   20.463992   16.825226
 O   11.427816   19.759302   17.025787
 O   13.610055   20.189182   17.286448
 C   12.301183   21.691457   15.922600
 O   11.176735   21.880310   15.506862
 C   13.490262   22.556472   15.631857
 C   13.149468   23.735226   14.736721
 C   14.359302   24.602601   14.449426
 O   14.115749   25.670887   13.655596
 O   15.461177   24.398159   14.869308
 H   10.720550   20.211145   16.535603
 H   14.268050   21.930639   15.191817
 H   13.914515   22.884089   16.582074
 H   12.374000   24.353125   15.198808
 H   12.732765   23.385265   13.787748
 H   13.187744   25.690048   13.405719
