15 
4nrp_ligand_dft.xyz
 C    2.281926    0.479372   -0.000056
 C    1.104897   -0.511789   -0.000043
 C   -1.305311   -0.715467   -0.000220
 C   -2.502336    0.225117    0.000060
 O    2.140152    1.673757   -0.000404
 O    3.444825   -0.155258    0.000235
 O    1.324729   -1.719008    0.000310
 O   -3.703933   -0.371365    0.000006
 N   -0.099468    0.064398   -0.000334
 O   -2.396420    1.420882    0.000646
 H   -1.343906   -1.368708   -0.882461
 H   -1.343728   -1.368521    0.882167
 H    3.229816   -1.111006    0.000576
 H   -3.617579   -1.334745   -0.001987
 H   -0.178202    1.076736   -0.000738
