15 
4nrp_ligand_ani-2x.xyz
 C   -7.894942   15.399848  -19.377869
 C   -6.728766   15.718668  -20.340034
 C   -4.888577   14.734493  -21.578077
 C   -4.230263   13.366795  -21.676898
 O   -8.140228   14.288744  -18.985792
 O   -8.566825   16.493630  -19.054607
 O   -6.526974   16.873344  -20.699388
 O   -3.129196   13.323341  -22.446660
 N   -6.020720   14.645680  -20.701462
 O   -4.642757   12.383478  -21.124757
 H   -5.189667   15.071171  -22.580375
 H   -4.165099   15.471556  -21.204126
 H   -8.128584   17.232213  -19.527329
 H   -2.942408   14.199662  -22.811676
 H   -6.260094   13.731176  -20.328651
