15 
4nrp_ligand_aiqm1.xyz
 C   -7.899115   15.410125  -19.386222
 C   -6.725094   15.699951  -20.333749
 C   -4.865021   14.733568  -21.529701
 C   -4.235552   13.364400  -21.711181
 O   -8.142880   14.313585  -18.967419
 O   -8.587750   16.506020  -19.101709
 O   -6.531276   16.843655  -20.724792
 O   -3.158541   13.332143  -22.516393
 N   -5.999503   14.627335  -20.651385
 O   -4.653605   12.376519  -21.184399
 H   -5.166977   15.133241  -22.503172
 H   -4.124838   15.429199  -21.121301
 H   -8.149438   17.227366  -19.586669
 H   -2.965674   14.212521  -22.850458
 H   -6.249836   13.724171  -20.269149
