17 
4nrq_ligand_ani-2x.xyz
 O   12.198627    4.325833   14.237698
 C   13.280007    3.815395   14.347421
 O   13.437022    2.484063   14.197813
 C   14.535887    4.582984   14.652410
 C   15.778248    4.218630   14.133959
 C   16.887477    4.999094   14.444320
 C   14.448376    5.722174   15.441679
 C   15.615229    6.420983   15.704385
 N   16.813391    6.077573   15.224199
 C   15.575948    7.653662   16.575461
 O   16.767640    8.228308   16.747450
 O   14.561092    8.075417   17.067404
 H   14.330467    2.224977   14.462429
 H   15.886303    3.366215   13.468529
 H   17.871634    4.740797   14.060754
 H   13.502282    6.065424   15.847435
 H   17.412570    7.691672   16.245356
