17 
4nrq_ligand_dft.xyz
 O    2.633148   -1.711465   -0.482096
 C    2.517744   -0.602546   -0.038554
 O    3.574174    0.053821    0.479657
 C    1.203278    0.134567   -0.036492
 C    1.113609    1.523793   -0.123303
 C   -0.146388    2.115688   -0.146873
 C    0.026954   -0.608497    0.009568
 C   -1.178334    0.080103    0.000051
 N   -1.273051    1.411387   -0.076923
 C   -2.489270   -0.669819    0.074686
 O   -3.562999    0.118315    0.041026
 O   -2.545538   -1.869163    0.158702
 H    3.291074    0.855990    0.938187
 H    1.995958    2.151087   -0.212084
 H   -0.251907    3.193861   -0.226866
 H    0.041904   -1.691446    0.053402
 H   -3.241505    1.039008   -0.026994
