27 
4nzb_ligand_xtb.xyz
 C   12.458951   84.877052   19.119675
 C    9.987347   86.984689   28.234116
 C   12.329141   84.121787   21.427162
 C   13.080724   81.897126   22.002930
 C   11.543169   84.202792   25.570106
 C   12.187674   83.386620   23.756612
 C   12.538993   83.127036   22.377214
 C   11.006456   85.142689   26.531084
 C   10.591507   86.412034   26.125073
 C   10.889265   84.809672   27.880251
 C   10.368652   85.751712   28.747990
 N   12.296552   85.678452   18.317499
 N   11.677885   84.481920   24.241642
 C   12.665721   83.875784   20.100258
 N   11.952581   82.994677   25.873478
 N   10.095694   87.307151   26.955917
 O   12.373609   82.453862   24.704946
 C   13.411585   81.664120   20.679882
 C   13.208255   82.644241   19.725164
 H    9.574824   87.753690   28.874028
 H   11.909465   85.068204   21.730346
 H   13.237002   81.136457   22.752262
 H   10.667783   86.704336   25.086939
 H   11.203799   83.833730   28.217211
 H   10.259740   85.537650   29.799804
 H   13.830669   80.712527   20.390558
 H   13.464555   82.468191   18.691055
