27 
4nzb_ligand_aiqm1.xyz
 C   12.514258   84.848422   19.030894
 C    9.969103   86.964268   28.309989
 C   12.349600   84.132148   21.366191
 C   13.073373   81.912036   22.019458
 C   11.526802   84.232097   25.553514
 C   12.165525   83.453008   23.729657
 C   12.536167   83.159482   22.348896
 C   10.985952   85.161367   26.550017
 C   10.569387   86.440180   26.172621
 C   10.875152   84.792357   27.891505
 C   10.356159   85.713872   28.787033
 N   12.362127   85.651648   18.209133
 N   11.657888   84.543863   24.220300
 C   12.704083   83.849644   20.049314
 N   11.928211   83.024111   25.867862
 N   10.069329   87.332189   27.027114
 O   12.357065   82.497818   24.649800
 C   13.424358   81.639126   20.701742
 C   13.242497   82.602688   19.712458
 H    9.559715   87.707380   28.983428
 H   11.933882   85.095617   21.624906
 H   13.210906   81.170299   22.794155
 H   10.648500   86.742210   25.136321
 H   11.189587   83.808586   28.213959
 H   10.250476   85.475170   29.836186
 H   13.840063   80.676243   20.441876
 H   13.511437   82.402371   18.684869
