58 
4o09_ligand_ani-2x.xyz
 O   -1.373481  -10.169363  -26.248128
 C   -0.882746  -10.837184  -25.349375
 N   -1.666359  -11.650810  -24.578051
 C   -1.204833  -12.321328  -23.380571
 C    0.147856  -12.945525  -23.679952
 C    1.091526  -11.891318  -24.215027
 C    2.454530  -11.968148  -23.939834
 C    0.589642  -10.845949  -25.008588
 C    1.455904   -9.844217  -25.494540
 C    0.985805   -8.593570  -26.210174
 C    0.232267   -7.585705  -25.317724
 C   -0.020680   -6.288993  -26.090624
 C    0.977637   -7.305572  -24.013043
 C    2.812926   -9.961949  -25.215767
 C    3.324925  -11.008580  -24.447738
 N    4.723464  -11.017121  -24.169446
 C    5.425428   -9.882733  -23.798370
 C    5.625064  -12.053815  -24.253422
 C    5.341929  -13.470257  -24.628447
 C    6.600226  -14.126495  -25.231904
 C    6.888041  -13.547605  -26.623714
 C    6.372612  -15.633638  -25.348002
 C    7.792067  -13.872420  -24.285961
 C    8.065835  -12.417723  -23.935716
 O    9.193404  -12.040042  -23.666858
 C    6.871918  -11.557644  -23.916697
 C    6.749955  -10.165387  -23.624889
 C    7.851448   -9.228903  -23.210392
 H   -2.656776  -11.564035  -24.752259
 H   -1.939952  -13.082744  -23.105666
 H   -1.117883  -11.618118  -22.538303
 H    0.011314  -13.727224  -24.438173
 H    0.568280  -13.418830  -22.786678
 H    2.829799  -12.775548  -23.317549
 H    0.348373   -8.868889  -27.054533
 H    1.876692   -8.092839  -26.613477
 H   -0.736099   -8.033387  -25.069105
 H    0.927935   -5.802000  -26.353142
 H   -0.568962   -6.479256  -27.020770
 H   -0.605753   -5.580582  -25.492932
 H    1.118843   -8.226269  -23.435307
 H    1.969536   -6.876287  -24.210391
 H    0.419698   -6.594902  -23.393443
 H    3.516088   -9.234915  -25.611832
 H    4.888290   -8.953560  -23.651965
 H    4.501711  -13.547317  -25.331356
 H    5.061714  -14.037066  -23.726359
 H    6.046259  -13.741598  -27.298877
 H    7.054518  -12.465844  -26.591340
 H    7.781724  -14.014101  -27.054623
 H    6.170391  -16.082654  -24.368293
 H    5.517662  -15.849141  -25.999309
 H    7.252058  -16.132813  -25.771752
 H    8.710073  -14.297557  -24.701649
 H    7.601798  -14.390856  -23.334720
 H    7.974364   -8.409304  -23.928292
 H    7.647059   -8.785302  -22.228989
 H    8.795533   -9.774865  -23.151563
