59 
4o0b_ligand_xtb.xyz
 C    6.512863   -9.789529  -23.642085
 O   -1.650978  -10.837548  -25.982112
 C    5.172205   -9.580407  -23.760315
 C    5.486258  -11.734585  -24.207054
 C    6.723153  -11.172749  -23.939500
 C    7.957882  -11.922973  -24.034144
 C    7.749736  -13.393095  -24.377274
 C   -1.037680  -11.291140  -25.031890
 N   -1.676857  -12.058395  -24.116958
 C   -1.029537  -12.721641  -23.012746
 C    0.321737  -13.236469  -23.495546
 C    1.098025  -12.074707  -24.047117
 C    2.457289  -11.974979  -23.823100
 C    0.418249  -11.089494  -24.777116
 C    1.121423   -9.974810  -25.253545
 C    0.467625   -8.835727  -25.984423
 C    1.174958   -8.484314  -27.316935
 C    1.678469   -7.046692  -27.166140
 C    0.698816   -6.426395  -26.175898
 C    0.502646   -7.537607  -25.149202
 C    2.487255   -9.892907  -25.008316
 C    3.166254  -10.884163  -24.315937
 N    4.544607  -10.762589  -24.098820
 C    5.273688  -13.139467  -24.638310
 C    6.558297  -13.667624  -25.305024
 C    6.424914  -15.175425  -25.529274
 C    6.774028  -12.976398  -26.652694
 O    9.066228  -11.462652  -23.847820
 C    7.564584   -8.806578  -23.276590
 H    4.600669   -8.689128  -23.592946
 H    7.596834  -13.915528  -23.427210
 H    8.672910  -13.775369  -24.816472
 H   -2.665485  -12.189068  -24.267805
 H   -1.662417  -13.540922  -22.666823
 H   -0.880978  -12.021270  -22.178270
 H    0.164614  -13.980203  -24.282859
 H    0.866195  -13.711485  -22.679533
 H    2.962629  -12.730252  -23.242243
 H   -0.566312   -9.097938  -26.196350
 H    0.452926   -8.541510  -28.130941
 H    1.982510   -9.179182  -27.545148
 H    1.705380   -6.518192  -28.118080
 H    2.685694   -7.033230  -26.744664
 H   -0.246141   -6.210251  -26.675940
 H    1.073376   -5.506110  -25.728735
 H    1.347327   -7.554178  -24.457369
 H   -0.407988   -7.412211  -24.564937
 H    3.040663   -9.045703  -25.382344
 H    4.428689  -13.209398  -25.328433
 H    5.049205  -13.770091  -23.770121
 H    7.316328  -15.567540  -26.012725
 H    6.291578  -15.698718  -24.584500
 H    5.568689  -15.391237  -26.165118
 H    6.856285  -11.899620  -26.527865
 H    7.689092  -13.335481  -27.117512
 H    5.943681  -13.184238  -27.324832
 H    7.147428   -7.805090  -23.201843
 H    8.015623   -9.078584  -22.323222
 H    8.358858   -8.817818  -24.020479
