56 
4o0v_ligand_xtb.xyz
 C  -40.682471   11.226952  -10.780429
 O  -40.306319   12.289204  -11.616659
 C  -39.283764   13.091350  -11.060799
 C  -38.895898   14.155511  -12.089615
 N  -38.366213   13.550217  -13.285131
 C  -37.042346   13.342417  -13.415424
 N  -36.109571   13.974411  -12.766407
 C  -34.918267   13.518021  -13.276569
 C  -33.623451   13.848661  -12.904980
 C  -32.580346   13.212933  -13.545564
 C  -32.815413   12.242373  -14.526823
 C  -34.115437   11.900910  -14.908990
 C  -35.155408   12.566005  -14.297313
 N  -36.544123   12.464242  -14.391221
 C  -37.303962   11.683653  -15.238303
 C  -36.853421   11.257921  -16.492166
 C  -37.730881   10.473470  -17.219518
 N  -38.932612   10.127609  -16.790426
 C  -39.284590   10.601316  -15.593921
 N  -38.522761   11.363576  -14.809438
 N  -40.500460   10.276091  -15.116606
 C  -31.719777   11.591086  -15.139775
 C  -30.802176   11.027109  -15.675641
 C  -29.668743   10.360848  -16.307387
 C  -29.745376    8.850600  -15.995863
 C  -28.692799    8.053421  -16.763080
 C  -28.826498    8.286831  -18.265349
 C  -28.698804    9.773151  -18.587397
 C  -29.751438   10.582435  -17.833087
 O  -28.494716   10.941569  -15.763740
 H  -39.843395   10.542162  -10.605202
 H  -41.044687   11.592145   -9.811553
 H  -41.485579   10.694361  -11.286631
 H  -38.406369   12.472331  -10.820930
 H  -39.636371   13.568451  -10.134156
 H  -38.133782   14.815415  -11.674270
 H  -39.785399   14.729564  -12.361291
 H  -38.934456   12.810636  -13.695566
 H  -33.451136   14.577805  -12.130043
 H  -31.558269   13.445349  -13.286569
 H  -34.263031   11.123537  -15.642016
 H  -35.902335   11.556514  -16.891941
 H  -37.466366   10.106711  -18.202939
 H  -41.137806    9.782620  -15.713172
 H  -40.813279   10.698398  -14.260910
 H  -30.742289    8.494844  -16.264043
 H  -29.614526    8.713719  -14.920342
 H  -28.813888    6.991545  -16.538353
 H  -27.689907    8.340792  -16.433841
 H  -29.802842    7.928343  -18.599981
 H  -28.060301    7.721701  -18.800613
 H  -28.824129    9.934492  -19.660252
 H  -27.696161   10.122119  -18.323430
 H  -29.625059   11.648447  -18.033771
 H  -30.748464   10.289859  -18.168767
 H  -27.736428   10.510945  -16.172496
