35 
4o1l_ligand_aiqm1.xyz
 C    4.202581    2.934112   -0.021074
 C    3.315095    2.113740   -0.083777
 C    2.303190    1.119074   -0.128567
 C    1.102059    1.175051   -0.791520
 C    2.340668   -0.167565    0.519037
 C    3.240499   -0.876906    1.335819
 N    4.414646   -0.350413    1.736691
 N    2.929500   -2.111660    1.752313
 C    1.747819   -2.618725    1.372918
 N    0.808053   -2.060537    0.616637
 C    1.153797   -0.823145    0.208577
 N    0.398571    0.004840   -0.577446
 C   -0.876626   -0.346744   -1.204521
 O   -1.494694    0.859532   -1.594349
 C   -2.923028    0.785868   -1.375450
 C   -3.306870    1.936528   -0.468826
 O   -2.663703    1.867368    0.793217
 C   -3.206386   -0.603401   -0.809512
 O   -3.601962   -1.433761   -1.883494
 C   -1.859308   -1.037785   -0.248203
 O   -1.775602   -2.436945   -0.259977
 H    0.671164    1.946040   -1.403885
 H    5.046904   -0.935179    2.251073
 H    4.719702    0.534540    1.372835
 H    1.534254   -3.615226    1.733064
 H   -0.681940   -0.972300   -2.081846
 H   -3.419091    0.901297   -2.341951
 H   -3.069474    2.879886   -0.971372
 H   -4.378668    1.907129   -0.273917
 H   -1.719305    1.939476    0.629045
 H   -3.973659   -0.587602   -0.032773
 H   -3.329666   -2.326432   -1.652076
 H   -1.716655   -0.620248    0.751053
 H   -0.897509   -2.649948    0.099383
 H    4.965842    3.670441    0.020374
