46 
4o2a_ligand_xtb.xyz
 C   17.298142   63.331540   43.639749
 C   16.269550   64.225543   42.921037
 O   15.708646   65.111592   43.528234
 C   15.488846   63.551085   38.779099
 C   16.383728   62.717485   39.462079
 C   16.649914   62.909835   40.797034
 C   14.863878   64.584975   39.487263
 C   15.131526   64.771637   40.820004
 C   16.030164   63.943874   41.505616
 N   15.191100   63.325026   37.467374
 C   18.032815   64.999538   45.321059
 C   17.315912   64.191908   47.159712
 N   17.491395   63.791559   44.980921
 C   16.997702   63.257847   46.141084
 C   16.964812   63.937810   48.482700
 C   16.332397   62.074349   46.424704
 C   16.304760   62.759869   48.751642
 C   15.993266   61.844563   47.741438
 N   17.960080   65.260195   46.608170
 C   17.095651   69.742037   47.000773
 C   19.067455   67.248452   44.743903
 N   19.484870   67.825379   43.641458
 C   18.617406   65.915257   44.393420
 N   18.804473   65.762899   43.110222
 N   16.318773   69.516572   47.808309
 O   19.328188   66.905867   42.648699
 N   19.101436   67.744783   45.987057
 C   19.352020   69.138420   46.227248
 C   18.100971   70.015877   46.007191
 H   18.244927   63.386165   43.095465
 H   16.937987   62.300836   43.664163
 H   16.868863   61.916620   38.922574
 H   17.348105   62.248365   41.285188
 H   14.171381   65.234321   38.971645
 H   14.656563   65.569526   41.370473
 H   15.791412   62.718465   36.936208
 H   14.707675   64.043161   36.956428
 H   17.203040   64.648523   49.257390
 H   16.081828   61.362495   45.651821
 H   16.014769   62.531927   49.766508
 H   15.471155   60.935643   48.001178
 H   18.605065   67.177176   46.670452
 H   20.127826   69.460806   45.527768
 H   19.712489   69.254481   47.252377
 H   18.374029   71.072198   46.068126
 H   17.689611   69.816121   45.014235
