54 
4o2b_ligand_ani-2x.xyz
 O   -0.940070    4.176505   -1.208982
 C   -1.114306    3.014981   -1.548422
 C   -2.108340    2.599625   -2.615315
 N   -0.411080    1.988213   -0.999349
 C    0.592822    2.213706    0.031350
 C    1.550229    1.012127    0.106248
 C    2.867902    1.356446    0.001861
 C    0.007438    2.546863    1.422062
 C   -0.319173    1.328610    2.299121
 C   -1.101519    0.277735    1.557790
 C   -2.462162    0.110480    1.806924
 C   -3.229642   -0.765853    1.044493
 C   -2.620861   -1.512254    0.020421
 C   -1.255096   -1.379456   -0.204105
 O   -0.677640   -1.961036   -1.301522
 C   -0.743837   -3.377338   -1.408396
 O   -3.400003   -2.320585   -0.770387
 C   -3.783333   -1.678747   -1.978089
 O   -4.567560   -0.944155    1.177107
 C   -5.206380   -0.252169    2.225619
 C   -0.466651   -0.479512    0.558613
 C    0.992244   -0.295931    0.274367
 C    1.722393   -1.477777    0.229177
 C    3.088057   -1.706463    0.126476
 C    4.154503   -0.837006    0.058365
 C    4.124766    0.617396   -0.015815
 O    5.171779    1.259771   -0.126395
 O    5.355460   -1.446920   -0.048101
 C    6.464732   -0.955858    0.692547
 H   -1.586453    2.295003   -3.529750
 H   -2.748849    3.451710   -2.844725
 H   -2.725342    1.754272   -2.285079
 H   -0.569675    1.039474   -1.306530
 H    1.147790    3.099435   -0.289459
 H    3.091559    2.414010   -0.107710
 H    0.739007    3.169377    1.951802
 H   -0.885258    3.160624    1.257322
 H    0.620956    0.887226    2.650755
 H   -0.871676    1.657862    3.184753
 H   -2.925103    0.697483    2.593672
 H   -0.096036   -3.860266   -0.662974
 H   -0.374964   -3.615277   -2.407898
 H   -1.766022   -3.742738   -1.292096
 H   -4.396127   -0.794122   -1.762936
 H   -2.897865   -1.376440   -2.551829
 H   -4.372602   -2.397020   -2.552390
 H   -6.254878   -0.551950    2.194692
 H   -4.777564   -0.520708    3.200052
 H   -5.133425    0.834391    2.087247
 H    1.135496   -2.381280    0.325355
 H    3.388508   -2.752080    0.111383
 H    7.095387   -1.825532    0.892732
 H    7.012126   -0.209811    0.116063
 H    6.142268   -0.507811    1.638383
