53 
4o3f_ligand_xtb.xyz
 C   -6.460882    1.219551    0.991496
 C   -6.804398   -0.243977    0.729833
 C   -5.780539   -0.963420    1.604944
 O   -4.636110   -0.123696    1.673224
 C   -4.939111    1.154749    1.119832
 C   -4.271274    1.326045   -0.260376
 O   -4.925640    1.608251   -1.250036
 N   -2.932972    1.185503   -0.304263
 C   -2.059004    0.778321    0.772570
 C   -1.467484   -0.602483    0.452731
 C   -2.254342    1.236249   -1.585459
 C   -1.667639   -0.143121   -1.909877
 N   -0.814481   -0.578828   -0.832312
 C    0.536333   -0.466731   -0.914107
 N    1.042444   -0.247492   -2.146028
 N    1.238548   -0.637113    0.189966
 C    2.578531   -0.584221    0.078086
 C    3.361846   -0.763452    1.236844
 C    4.728669   -0.706132    1.175808
 O    5.569663   -0.866501    2.228505
 C    5.008810   -1.115837    3.493414
 C    5.378358   -0.457124   -0.073622
 O    6.741344   -0.414539   -0.007730
 C    7.455467   -0.165685   -1.189606
 C    4.630381   -0.284263   -1.207459
 C    3.224226   -0.347242   -1.158194
 C    2.350420   -0.187113   -2.274347
 N    2.818458    0.093858   -3.522317
 H   -6.755270    1.872569    0.174039
 H   -6.906313    1.565304    1.924485
 H   -7.827374   -0.500060    0.994473
 H   -6.635405   -0.474343   -0.322086
 H   -5.475338   -1.933456    1.202763
 H   -6.165296   -1.110352    2.623330
 H   -4.545775    1.926794    1.794297
 H   -1.242890    1.506843    0.848608
 H   -2.598584    0.732519    1.713943
 H   -2.278044   -1.337574    0.427160
 H   -0.729303   -0.885140    1.201884
 H   -1.446418    1.973406   -1.530817
 H   -2.980614    1.540362   -2.340199
 H   -2.482816   -0.865610   -2.024510
 H   -1.075374   -0.103827   -2.822876
 H    2.835124   -0.944211    2.158568
 H    4.428180   -2.043975    3.499082
 H    5.852352   -1.212037    4.175137
 H    4.369841   -0.288686    3.819238
 H    7.284226   -0.947475   -1.938500
 H    8.506313   -0.167954   -0.904523
 H    7.200541    0.809683   -1.619244
 H    5.115603   -0.086193   -2.150337
 H    2.137993    0.037798   -4.261675
 H    3.764720   -0.149740   -3.753362
