52 
4o78_ligand_ani-2x.xyz
 N   15.239139   18.760719   18.098627
 N   17.845315   15.241242   16.608806
 C   16.236773   19.344509   18.902028
 C   15.363201   17.650844   17.301866
 C   14.459984   16.274534   15.766141
 C   15.609278   15.507464   15.731725
 C   16.656521   15.928279   16.571384
 C   19.330948   16.800329   17.820179
 C   22.274554   15.737017   19.984021
 C   20.806282   14.639024   18.681615
 C   16.254806   20.742680   19.016099
 C   18.231470   20.597711   20.413209
 C   19.012998   21.394734   22.444993
 C   18.757062   17.197926   21.495060
 O   19.045116   18.536521   21.137939
 C   18.124364   19.204375   20.392000
 C   17.150750   18.573204   19.620111
 N   14.303995   17.356973   16.537980
 C   18.959236   15.482149   17.433016
 C   20.410312   17.030284   18.640294
 C   21.161192   15.933045   19.105524
 C   23.041351   16.760139   20.756710
 N   22.578098   14.452758   20.070871
 N   21.693547   13.801275   19.282529
 C   19.719749   14.392475   17.831613
 N   16.521577   16.990656   17.358068
 C   17.248168   21.361636   19.768878
 O   17.349459   22.703652   19.950286
 C   16.397976   23.518849   19.301294
 O   19.266485   21.207319   21.062772
 H   14.405697   19.301241   17.917239
 H   17.857934   14.356280   16.123486
 H   13.607586   16.016552   15.140775
 H   15.705404   14.637731   15.088742
 H   18.750360   17.636248   17.452769
 H   15.503760   21.330351   18.500240
 H   19.903570   21.865142   22.868657
 H   18.146378   22.051988   22.593062
 H   18.834655   20.431029   22.938147
 H   18.840558   16.530346   20.630476
 H   19.502553   16.915507   22.241785
 H   17.753122   17.109577   21.931888
 H   17.097300   17.494508   19.567486
 H   20.652314   18.039963   18.958398
 H   23.488600   17.512374   20.097302
 H   22.386473   17.290550   21.459874
 H   23.836056   16.269163   21.323304
 H   21.743218   12.798605   19.205817
 H   19.469092   13.380379   17.521623
 H   15.379274   23.296506   19.644549
 H   16.651195   24.546116   19.566338
 H   16.446194   23.403520   18.210406
