51 
4o7c_ligand_dft.xyz
 C   -4.348397   -1.421918    1.184197
 C   -5.713779   -2.087058    1.167066
 N   -6.461301   -1.627004   -0.063588
 C   -5.740862   -1.988117   -1.342487
 C   -4.375070   -1.323639   -1.338059
 C   -3.533708   -1.668386   -0.097744
 C   -2.307642   -0.804423   -0.075589
 N   -1.065528   -1.292232   -0.066563
 C   -0.297525   -0.163185   -0.036180
 C    1.165480   -0.283241   -0.096447
 C    1.966036    0.663859   -0.759681
 C    3.345240    0.528994   -0.827732
 C    3.948337   -0.583904   -0.239050
 C    5.339330   -0.995843   -0.152995
 C    5.469540   -2.299073    0.574926
 C    4.014599   -2.673361    0.956822
 C    3.162404   -1.550353    0.403036
 C    1.787756   -1.404458    0.473925
 N    6.378150   -0.368461   -0.619385
 O    7.593124   -0.748182   -0.535320
 C   -1.143825    0.959898   -0.008693
 C   -0.869220    2.393280    0.119821
 C    0.256896    2.912940    0.772297
 C    0.418904    4.288790    0.868624
 N   -0.444043    5.188672    0.386687
 C   -1.527496    4.689022   -0.217656
 C   -1.783576    3.334811   -0.373047
 N   -2.439536    0.527349   -0.048504
 H   -3.793812   -1.790431    2.051862
 H   -4.454383   -0.337433    1.317391
 H   -6.331190   -1.828433    2.031088
 H   -5.647654   -3.175999    1.086305
 H   -6.543585   -0.605749   -0.022169
 H   -7.410957   -2.004863   -0.068313
 H   -6.376640   -1.662870   -2.169912
 H   -5.674341   -3.080001   -1.349161
 H   -4.481513   -0.232011   -1.383961
 H   -3.840687   -1.623950   -2.243859
 H   -3.221660   -2.719100   -0.141273
 H    1.490249    1.513487   -1.238311
 H    3.931225    1.281341   -1.350970
 H    6.207388    0.521613   -1.103359
 H    6.127659   -2.182204    1.443261
 H    5.950471   -3.044103   -0.069020
 H    3.892944   -2.760446    2.042081
 H    3.719853   -3.637573    0.528514
 H    1.165477   -2.150150    0.959504
 H    0.995195    2.250111    1.210697
 H    1.294478    4.694329    1.373643
 H   -2.233467    5.422928   -0.605179
 H   -2.684767    2.990878   -0.868937
