51 
4o7c_ligand_aiqm1.xyz
 C  114.246500   -8.170583    2.682279
 C  113.027838   -8.497114    3.521705
 N  112.915389  -10.012360    3.667963
 C  114.145369  -10.568181    4.380503
 C  115.377185  -10.265034    3.551492
 C  115.547497   -8.765527    3.250842
 C  116.621740   -8.604218    2.239038
 N  117.728097   -7.888917    2.451029
 C  118.405501   -8.022634    1.273518
 C  119.739441   -7.445308    1.108240
 C  120.730781   -8.086198    0.346871
 C  122.003325   -7.541375    0.202217
 C  122.291840   -6.338084    0.843750
 C  123.520430   -5.551362    0.871913
 C  123.326035   -4.323006    1.727814
 C  121.869974   -4.416517    2.231960
 C  121.325628   -5.692514    1.625105
 C  120.057784   -6.241880    1.759134
 N  124.624110   -5.823402    0.275993
 O  125.724405   -5.120344    0.301993
 C  117.645350   -8.806882    0.398477
 C  117.875262   -9.166330   -1.002339
 C  118.468206   -8.294228   -1.923415
 C  118.627703   -8.701589   -3.243694
 N  118.237901   -9.891511   -3.718690
 C  117.657508  -10.715554   -2.835141
 C  117.457055  -10.407293   -1.499141
 N  116.500532   -9.190123    1.036083
 H  114.348664   -7.090741    2.617826
 H  114.121283   -8.541287    1.663830
 H  112.102405   -8.127586    3.086271
 H  113.134790   -8.090023    4.527072
 H  112.868768  -10.427518    2.726223
 H  112.060787  -10.267288    4.165380
 H  113.994130  -11.633218    4.540141
 H  114.202715  -10.068855    5.347510
 H  115.340553  -10.798237    2.600058
 H  116.254545  -10.622181    4.083378
 H  115.810068   -8.240257    4.174016
 H  120.497466   -9.022726   -0.137446
 H  122.745189   -8.061814   -0.395985
 H  124.664171   -6.677142   -0.282370
 H  123.524426   -3.427224    1.134326
 H  124.065360   -4.315620    2.532313
 H  121.283097   -3.551272    1.921260
 H  121.825788   -4.450072    3.321013
 H  119.301879   -5.771794    2.373843
 H  118.805202   -7.315650   -1.610466
 H  119.090506   -8.035034   -3.964377
 H  117.338537  -11.677298   -3.226362
 H  116.970385  -11.111596   -0.836254
