39 
4o7e_ligand_aiqm1.xyz
 C   66.137152  121.614734   32.461358
 C   65.359746  121.749656   33.610541
 C   65.071606  123.010283   34.112822
 C   65.558928  124.154612   33.470468
 C   66.337082  124.014759   32.316418
 C   66.623611  122.749843   31.816188
 C   65.238976  125.471269   34.025747
 N   65.735235  126.641883   33.535763
 C   65.218049  127.675694   34.286077
 C   64.438753  127.052078   35.243135
 N   64.455139  125.691540   35.059757
 C   63.693831  127.651049   36.358169
 C   64.121111  128.810103   37.011315
 C   63.364016  129.304290   38.069754
 N   62.239551  128.736447   38.517685
 C   61.848803  127.617063   37.894714
 C   62.528829  127.042326   36.830400
 C   65.514696  129.069687   33.958818
 C   66.806029  129.414239   33.535928
 C   67.107308  130.729481   33.198663
 C   66.126213  131.717419   33.262879
 C   64.845509  131.371088   33.674605
 C   64.529220  130.058006   34.020071
 O   68.353818  131.109787   32.790867
 H   66.362300  120.632168   32.069208
 H   64.979690  120.870336   34.113100
 H   64.471835  123.139955   35.001550
 H   66.717976  124.887779   31.798800
 H   67.225336  122.649909   30.922281
 H   66.310135  126.747454   32.721101
 H   65.027019  129.317196   36.708773
 H   63.680678  130.202276   38.587952
 H   60.942727  127.156558   38.271559
 H   62.175423  126.125714   36.378895
 H   67.584743  128.658647   33.490687
 H   66.381097  132.732737   32.994755
 H   64.081232  132.134520   33.726599
 H   63.531411  129.800914   34.341491
 H   68.942188  130.352500   32.828107
