16 
4oct_ligand_dft.xyz
 C   -2.459963    0.407629   -0.000152
 O   -3.548265   -0.355105    0.000078
 O   -2.464898    1.608951   -0.000367
 C   -1.157093   -0.424862    0.000046
 O   -1.259297   -1.635820    0.000353
 C    0.134617    0.330387   -0.000084
 C    1.345726   -0.587946   -0.000011
 C    2.646851    0.198038    0.000034
 O    2.713615    1.396902    0.000625
 O    3.770562   -0.550098   -0.000436
 H   -3.241945   -1.282669    0.000179
 H    0.142516    1.006742    0.862986
 H    0.142501    1.006592   -0.863263
 H    1.325132   -1.248683   -0.875758
 H    1.325185   -1.248437    0.875930
 H    3.552052   -1.491661   -0.001088
