21 
4oi6_ligand_aiqm1.xyz
 C   10.831784    8.443006    0.382548
 O   10.260593    7.488856   -0.088646
 O   11.712408    9.132437   -0.341770
 C   10.530535    8.931496    1.787555
 C   10.445127    7.741899    2.761651
 O    9.406836    6.865647    2.391439
 C   10.109493    8.262573    4.171861
 C    9.531169    7.198826    5.088740
 O    8.494131    7.557902    5.852315
 O    9.978589    6.083069    5.178828
 C   11.824725    7.026128    2.727931
 O   12.725439    7.492209    2.071998
 O   11.953551    5.913878    3.423832
 H   12.194654    9.749796    0.217736
 H    9.555079    9.425983    1.756573
 H   11.272412    9.648605    2.141371
 H    9.475408    6.761380    1.428916
 H    9.404201    9.092466    4.068926
 H   11.013051    8.658628    4.642982
 H    8.205896    8.450756    5.642550
 H   11.156020    5.768361    3.976761
