21 
4oi6_ligand_ani-2x.xyz
 C   11.046732    8.399316    0.369670
 O   10.908785    7.261448   -0.012029
 O   11.549894    9.324339   -0.460872
 C   10.639404    8.879971    1.752772
 C   10.413960    7.718161    2.732694
 O    9.450939    6.818443    2.243845
 C    9.900223    8.274502    4.067865
 C    9.484411    7.225059    5.093413
 O    8.948867    7.717098    6.222118
 O    9.591738    6.029110    4.968414
 C   11.766526    6.995444    2.937112
 O   12.809552    7.566673    2.743570
 O   11.704930    5.727119    3.324489
 H   11.610986   10.183525   -0.018613
 H    9.707953    9.449617    1.646259
 H   11.411675    9.538217    2.158406
 H    9.763253    6.554020    1.357777
 H    9.012923    8.889297    3.862902
 H   10.654844    8.935843    4.514891
 H    8.922605    8.684596    6.196392
 H   10.780902    5.522102    3.583024
