49 
4ona_ligand_xtb.xyz
 C    9.866668  -19.257816  -33.133987
 C    8.490246  -19.123362  -32.502353
 O    7.576015  -19.847950  -33.303100
 C    6.269825  -19.872406  -32.943491
 C    5.733565  -19.249568  -31.842078
 C    5.431605  -20.616182  -33.810584
 C    4.096356  -20.724983  -33.569431
 C    3.516383  -20.098979  -32.445102
 C    2.147421  -20.173118  -32.136793
 C    4.354667  -19.349191  -31.575364
 N    3.864985  -18.711979  -30.490733
 C    2.593675  -18.802586  -30.231656
 C    1.669117  -19.539456  -31.009162
 C    0.262931  -19.562067  -30.630380
 N   -0.311975  -18.455779  -30.201468
 N   -1.610001  -18.731418  -29.982516
 C   -2.511278  -17.674165  -29.537536
 C   -1.708286  -16.376872  -29.444271
 C   -3.636908  -17.509834  -30.563092
 C   -3.069249  -18.018545  -28.150829
 C   -1.883526  -20.024034  -30.263407
 N   -3.104967  -20.625177  -30.245321
 C   -0.684110  -20.621197  -30.682842
 C   -0.582617  -22.057656  -30.886987
 O   -1.574213  -22.780966  -30.942287
 N    0.663137  -22.587569  -30.963271
 H   10.153635  -20.304793  -33.179961
 H    9.852025  -18.858504  -34.144384
 H   10.598180  -18.712371  -32.544831
 H    8.192194  -18.067043  -32.457029
 H    8.497087  -19.529374  -31.481544
 H    6.324729  -18.670246  -31.152521
 H    5.891832  -21.088591  -34.664278
 H    3.461990  -21.294043  -34.233985
 H    1.479468  -20.708593  -32.798566
 H    2.238489  -18.271923  -29.358481
 H   -0.915953  -16.474144  -28.708310
 H   -1.250313  -16.147776  -30.401432
 H   -2.365383  -15.560379  -29.157437
 H   -3.222215  -17.201369  -31.519745
 H   -4.176672  -18.440697  -30.710937
 H   -4.335235  -16.748788  -30.225052
 H   -3.770936  -18.848061  -28.186190
 H   -2.257382  -18.278080  -27.474902
 H   -3.593215  -17.157073  -27.745271
 H   -3.741754  -20.391826  -29.500930
 H   -3.000613  -21.622628  -30.436734
 H    0.745468  -23.586967  -31.040023
 H    1.490105  -22.032974  -30.833614
