49 
4ona_ligand_aiqm1.xyz
 C    9.833641  -19.115737  -33.188837
 C    8.464402  -19.039055  -32.556283
 O    7.580963  -19.799021  -33.377561
 C    6.283076  -19.863282  -32.991808
 C    5.767033  -19.257846  -31.871326
 C    5.443203  -20.627981  -33.850826
 C    4.115780  -20.767145  -33.564831
 C    3.552667  -20.156053  -32.411566
 C    2.185515  -20.267533  -32.072778
 C    4.391054  -19.391191  -31.563816
 N    3.917753  -18.763306  -30.446542
 C    2.639897  -18.887849  -30.170457
 C    1.710425  -19.643515  -30.942560
 C    0.288301  -19.646083  -30.558322
 N   -0.262672  -18.498065  -30.186398
 N   -1.577004  -18.755418  -29.937803
 C   -2.482678  -17.653258  -29.530616
 C   -1.670751  -16.374934  -29.344758
 C   -3.508546  -17.417181  -30.643261
 C   -3.146084  -18.015971  -28.202206
 C   -1.866469  -20.056321  -30.166675
 N   -3.079404  -20.666929  -29.949171
 C   -0.682293  -20.689881  -30.555776
 C   -0.642786  -22.130967  -30.812376
 O   -1.681459  -22.789691  -30.890668
 N    0.565341  -22.732876  -30.977697
 H   10.172919  -20.149697  -33.243327
 H    9.813556  -18.701407  -34.196302
 H   10.544656  -18.545901  -32.590993
 H    8.113585  -18.004865  -32.501826
 H    8.474068  -19.457116  -31.545775
 H    6.365260  -18.665536  -31.196331
 H    5.889076  -21.084500  -34.724645
 H    3.477654  -21.345785  -34.222239
 H    1.530517  -20.851483  -32.711138
 H    2.276536  -18.366266  -29.290468
 H   -0.895988  -16.511717  -28.590653
 H   -1.198674  -16.071927  -30.278005
 H   -2.344945  -15.582422  -29.017026
 H   -2.989370  -17.225682  -31.582662
 H   -4.194824  -18.252073  -30.793138
 H   -4.109865  -16.541240  -30.393274
 H   -3.725718  -18.934119  -28.264838
 H   -2.377362  -18.144469  -27.439953
 H   -3.806992  -17.202230  -27.895607
 H   -3.897450  -20.124818  -30.178682
 H   -3.067426  -21.611462  -30.328275
 H    0.557119  -23.737030  -30.998980
 H    1.409765  -22.270266  -30.695146
