14 
4oow_ligand_ani-2x.xyz
 C  -31.327253    1.562605   15.738980
 C  -31.376992    0.232751   15.325436
 C  -30.252511   -0.573758   15.441903
 O  -30.301902   -1.868823   15.038857
 C  -29.070490   -0.039730   15.977465
 O  -28.019638   -0.918860   16.048508
 C  -29.023532    1.283119   16.388149
 C  -30.156426    2.088317   16.268694
 H  -32.212966    2.184914   15.643319
 H  -32.284387   -0.195323   14.908628
 H  -29.429617   -2.259614   15.198311
 H  -27.249543   -0.475217   16.424678
 H  -28.101413    1.687577   16.802301
 H  -30.115830    3.124442   16.591471
