14 
4oow_ligand_xtb.xyz
 C  -31.321453    1.558721   15.739707
 C  -31.376512    0.237740   15.326977
 C  -30.260290   -0.575014   15.438700
 O  -30.312160   -1.871049   15.034551
 C  -29.077379   -0.046924   15.972916
 O  -28.001199   -0.900745   16.059667
 C  -29.030097    1.272291   16.382635
 C  -30.153266    2.076650   16.266167
 H  -32.197029    2.182505   15.647950
 H  -32.278731   -0.183468   14.914041
 H  -29.443073   -2.264543   15.192972
 H  -27.251956   -0.429206   16.438256
 H  -28.111644    1.670102   16.793731
 H  -30.107712    3.105340   16.588430
