17 
4owv_ligand_aiqm1.xyz
 C    0.936558   38.168906  -16.276563
 O   -0.094495   38.519433  -17.054849
 O    1.942351   38.830953  -16.240550
 C    0.768545   36.942095  -15.411981
 C   -0.261638   36.000619  -15.548410
 C   -0.364119   34.951399  -14.634781
 N   -1.209642   36.143154  -16.617384
 C    0.556901   34.820983  -13.601955
 C    1.602791   35.731757  -13.478582
 C    1.699666   36.781039  -14.381688
 H   -0.797059   37.841158  -16.968072
 H   -1.173861   34.235859  -14.727470
 H   -0.837224   35.741308  -17.472957
 H   -2.075121   35.667501  -16.405450
 H    0.458873   34.003709  -12.900356
 H    2.329109   35.627843  -12.684197
 H    2.491465   37.513386  -14.311655
