34 
4oyb_ligand_xtb.xyz
 C   15.105445   25.437884   -5.538539
 C   15.253175   26.951781   -5.543855
 C   18.633380   28.028274   -4.495438
 C   19.159452   26.964565   -2.441527
 C   19.638328   26.032860   -0.271079
 C   19.017637   24.845567   -0.619880
 C   18.470857   24.713755   -1.893867
 C   18.552405   25.773581   -2.802507
 C   17.747022   23.516909   -2.352247
 C   17.819938   22.270133   -1.582291
 O   16.642009   27.308115   -5.502753
 C   17.124315   27.803107   -4.365959
 O   16.484706   28.050187   -3.382284
 O   19.278437   28.054599   -3.249253
 C   19.710419   27.084505   -1.163035
 O   17.074977   23.523843   -3.378377
 N   18.545536   21.983431   -0.530916
 O   18.310532   20.720627   -0.212399
 N   17.421385   20.138097   -1.051406
 C   17.085550   21.063134   -1.925353
 N   16.204194   20.932025   -2.918513
 H   15.599330   25.009879   -6.407341
 H   15.552060   25.013422   -4.642153
 H   14.051414   25.177073   -5.565194
 H   14.752198   27.398245   -4.679672
 H   14.856965   27.383049   -6.466624
 H   18.799909   29.017987   -4.931001
 H   19.059050   27.270768   -5.165901
 H   20.063358   26.142848    0.714902
 H   18.951856   24.032984    0.083423
 H   18.122967   25.621173   -3.780747
 H   20.181524   28.016715   -0.894915
 H   16.138312   21.700278   -3.569730
 H   15.823358   20.028196   -3.128768
