21 
4oyi_ligand_xtb.xyz
 C   17.232508   20.542088   -0.935746
 C   17.944914   21.809948   -0.902897
 C   17.379229   23.071404   -1.401297
 C   17.602305   25.454727   -1.918750
 C   18.253879   26.669305   -1.861134
 C   19.455084   26.775743   -1.176667
 C   19.998222   25.663282   -0.552851
 C   19.352968   24.441868   -0.608039
 N   15.981209   20.351969   -1.354902
 N   18.039467   19.625495   -0.444263
 O   19.186209   20.269448   -0.121815
 N   19.126503   21.563672   -0.396074
 O   16.264630   23.039610   -1.908642
 C   18.145079   24.326101   -1.296364
 H   16.665554   25.351176   -2.446214
 H   17.828288   27.534283   -2.347651
 H   19.966909   27.725664   -1.128815
 H   20.932395   25.748868   -0.018142
 H   19.777981   23.578528   -0.123290
 H   15.521474   21.140151   -1.786749
 H   15.609593   19.422269   -1.412996
