18 
4oyp_ligand_ani-2x.xyz
 O   16.760736   30.539954   -2.268834
 O   15.332740   28.846529   -2.464795
 C   19.983391   25.741278    1.265394
 C   18.921970   24.864767    0.984457
 C   19.980509   27.044010    0.795307
 C   17.828646   25.262189    0.227490
 C   18.504825   28.692429   -0.626265
 O   16.884461   27.168033   -0.988181
 C   16.368214   29.269811   -2.034161
 C   17.302614   28.447536   -1.213412
 C   18.886337   27.466760    0.028749
 C   17.843479   26.573090   -0.235592
 H   17.614961   30.716766   -1.853525
 H   20.819698   25.386807    1.862562
 H   18.958821   23.849343    1.370318
 H   20.803146   27.719025    1.014586
 H   17.001632   24.597865    0.001885
 H   19.089020   29.602609   -0.625482
