18 
4oyp_ligand_xtb.xyz
 O   16.827351   30.530926   -2.228162
 O   15.334532   28.907974   -2.482563
 C   19.978657   25.764357    1.253226
 C   18.931104   24.875932    0.985092
 C   19.964466   27.055779    0.780872
 C   17.836282   25.250928    0.236122
 C   18.483822   28.668236   -0.629498
 O   16.865001   27.142029   -0.988733
 C   16.379709   29.274270   -2.027744
 C   17.271902   28.416455   -1.218755
 C   18.867099   27.462254    0.019152
 C   17.817458   26.554185   -0.243083
 H   17.681022   30.698850   -1.810114
 H   20.813970   25.421685    1.845010
 H   18.984843   23.871540    1.376408
 H   20.772502   27.740250    0.987983
 H   17.025315   24.573580    0.024791
 H   19.050166   29.579569   -0.639506
