18 
4oyp_ligand_aiqm1.xyz
 O   16.800392   30.534641   -2.244224
 O   15.335356   28.877417   -2.471856
 C   19.984899   25.749339    1.262493
 C   18.923872   24.866893    0.983987
 C   19.979754   27.050741    0.791956
 C   17.829841   25.258483    0.229131
 C   18.492434   28.692499   -0.632944
 O   16.871315   27.156290   -0.990912
 C   16.373247   29.268028   -2.029324
 C   17.291970   28.433519   -1.213676
 C   18.880854   27.471244    0.023975
 C   17.841319   26.571214   -0.236164
 H   17.650483   30.666489   -1.816146
 H   20.818351   25.400043    1.855856
 H   18.962335   23.857426    1.368342
 H   20.798501   27.723395    1.009821
 H   17.009376   24.592082    0.008006
 H   19.040902   29.619055   -0.657821
