42 
4p1r_ligand_xtb.xyz
 C   27.211874  -72.995598  -23.498451
 O   26.608083  -74.204098  -23.067240
 C   25.914570  -74.837108  -24.010040
 N   25.741307  -74.405107  -25.223923
 C   24.994912  -75.377858  -25.843379
 C   24.491842  -75.484753  -27.128825
 C   23.766967  -76.632490  -27.410254
 C   23.576708  -77.600736  -26.428732
 N   24.048920  -77.521600  -25.193119
 C   24.738731  -76.428384  -24.928594
 N   25.336243  -76.057031  -23.740636
 C   25.350563  -76.786358  -22.536879
 C   25.292073  -78.175895  -22.574118
 C   25.301577  -78.911520  -21.407174
 C   25.373659  -78.269703  -20.171269
 N   25.393389  -78.938754  -18.958809
 C   25.366126  -80.279491  -18.674015
 C   25.388872  -80.676581  -17.324840
 C   25.362701  -82.019043  -17.029614
 C   25.314645  -82.958272  -18.062585
 C   25.284308  -84.426451  -17.775672
 C   25.296705  -82.456470  -19.353104
 N   25.321556  -81.169725  -19.658082
 C   25.423321  -76.874139  -20.142915
 C   25.407819  -76.137436  -21.308663
 H   27.902794  -73.186287  -24.321664
 H   26.451800  -72.289264  -23.837881
 H   27.743630  -72.603111  -22.634558
 H   24.658202  -74.713592  -27.864490
 H   23.345909  -76.782785  -28.392297
 H   23.013444  -78.498965  -26.641094
 H   25.222917  -78.675464  -23.526207
 H   25.256588  -79.986466  -21.434376
 H   25.433794  -78.337161  -18.147614
 H   25.426003  -79.934914  -16.539945
 H   25.379068  -82.350949  -16.000681
 H   26.168532  -84.722365  -17.211785
 H   24.408560  -84.679215  -17.178506
 H   25.252640  -84.998758  -18.699238
 H   25.260144  -83.121911  -20.206812
 H   25.469101  -76.359795  -19.192515
 H   25.440403  -75.061396  -21.263206
