42 
4p1r_ligand_aiqm1.xyz
 C   27.532331  -73.245667  -23.475896
 O   26.842966  -74.455159  -23.125635
 C   26.058654  -74.927265  -24.080122
 N   25.884872  -74.395242  -25.257227
 C   24.993937  -75.268596  -25.872934
 C   24.420127  -75.253188  -27.135243
 C   23.554932  -76.304099  -27.433839
 C   23.305737  -77.305818  -26.488688
 N   23.850061  -77.344364  -25.263375
 C   24.661319  -76.328987  -25.011485
 N   25.366791  -76.089647  -23.837514
 C   25.322496  -76.840682  -22.633065
 C   25.409935  -78.229821  -22.672286
 C   25.351297  -78.985597  -21.505802
 C   25.211443  -78.344778  -20.267686
 N   25.140524  -78.997967  -19.030163
 C   25.253263  -80.330233  -18.680130
 C   25.145774  -80.658934  -17.313113
 C   25.253706  -81.981490  -16.936357
 C   25.467180  -82.969916  -17.907213
 C   25.591604  -84.422961  -17.553231
 C   25.556559  -82.529443  -19.216844
 N   25.455736  -81.250645  -19.618191
 C   25.121971  -76.945667  -20.241321
 C   25.169103  -76.196023  -21.408948
 H   28.154343  -73.409036  -24.353633
 H   26.815218  -72.455805  -23.693575
 H   28.135006  -73.001795  -22.608197
 H   24.632460  -74.469500  -27.848855
 H   23.070557  -76.354498  -28.399561
 H   22.635156  -78.120407  -26.730434
 H   25.491311  -78.729045  -23.629437
 H   25.413980  -80.059266  -21.556928
 H   25.008582  -78.381935  -18.249636
 H   24.980310  -79.884996  -16.573617
 H   25.172821  -82.251068  -15.890161
 H   26.427052  -84.594008  -16.870988
 H   24.689238  -84.788197  -17.058284
 H   25.755087  -85.024081  -18.447586
 H   25.721261  -83.249635  -20.013377
 H   25.007834  -76.435350  -19.289832
 H   25.108467  -75.116189  -21.363391
