62 
4p3h_ligand_ani-2x.xyz
 C    1.361894  -35.789105  -12.796206
 C    1.229756  -33.785140  -18.584833
 C    1.793335  -34.508448  -20.816351
 C    1.683225  -33.195690  -21.276309
 C    1.371008  -32.184896  -20.367284
 C   -0.614552  -31.302793  -17.554345
 C   -0.888536  -30.863205  -16.256960
 C   -2.992524  -31.605649  -17.906774
 C   -5.353891  -33.550346  -14.244707
 C   -4.087231  -33.080950  -13.523787
 C   -2.864231  -33.931914  -13.889916
 C   -3.157535  -35.409863  -13.602197
 C   -4.411370  -35.886319  -14.336868
 C   -5.627501  -35.031521  -13.973288
 C   -1.605002  -33.437515  -13.158801
 C   -0.380234  -34.267561  -13.461349
 C    0.258876  -35.009634  -12.465392
 C    1.798266  -35.801930  -14.112892
 C    1.108926  -35.022848  -15.032476
 N    0.044492  -34.272939  -14.727260
 C    1.571640  -35.013310  -16.464726
 O    2.444920  -35.776047  -16.849256
 N    0.946482  -34.078535  -17.234894
 C    1.140117  -32.452887  -19.025742
 C    1.578631  -34.799056  -19.479055
 C    0.818298  -31.328551  -18.064131
 C   -2.197566  -30.775587  -15.793453
 C   -1.682268  -31.682788  -18.369967
 C   -3.254167  -31.146395  -16.621119
 C    1.896903  -32.816520  -22.673913
 N    2.080911  -33.639198  -23.726235
 N    1.944170  -31.582561  -23.134902
 N    2.158992  -31.677812  -24.463127
 N    2.241030  -32.903085  -24.834859
 H    1.870558  -36.377875  -12.035990
 H    2.062629  -35.320054  -21.488268
 H    1.312327  -31.165278  -20.740869
 H   -0.062167  -30.590517  -15.603805
 H   -3.810839  -31.904328  -18.556820
 H   -5.228359  -33.401202  -15.329012
 H   -6.213735  -32.939742  -13.942761
 H   -3.890557  -32.022929  -13.744427
 H   -4.243206  -33.146166  -12.435484
 H   -2.678171  -33.832503  -14.971979
 H   -3.299361  -35.539456  -12.517296
 H   -2.292442  -36.024094  -13.884886
 H   -4.602617  -36.943703  -14.117004
 H   -4.233150  -35.818819  -15.420434
 H   -6.514237  -35.367767  -14.524735
 H   -5.853912  -35.165534  -12.905300
 H   -1.402847  -32.401989  -13.458615
 H   -1.785093  -33.436061  -12.076869
 H   -0.116445  -34.976562  -11.445731
 H    2.647483  -36.389962  -14.448067
 H    0.258730  -33.503848  -16.761430
 H    1.682655  -35.813761  -19.111458
 H    1.494527  -31.373822  -17.200133
 H    1.037848  -30.378603  -18.570874
 H   -2.386535  -30.414107  -14.784475
 H   -1.484216  -32.048025  -19.375737
 H   -4.280548  -31.076517  -16.269613
 H    2.084417  -34.645178  -23.796554
