36 
4p7m_ligand_xtb.xyz
 C   -2.258115  -29.499650  -18.191013
 C   -2.137858  -29.777701  -19.546885
 O   -1.809455  -28.756351  -20.379378
 C   -2.345948  -31.072548  -20.008961
 C   -2.685721  -32.073450  -19.116781
 C   -2.814777  -31.806929  -17.767219
 C   -2.590906  -30.513189  -17.304887
 O   -2.768561  -30.158617  -15.991535
 C   -2.357776  -30.985800  -14.989028
 C   -2.981565  -30.839542  -13.752721
 C   -1.316478  -31.897863  -15.109813
 C   -0.948120  -32.630590  -13.985337
 C    0.174866  -33.619150  -14.055915
 N   -1.550412  -32.497394  -12.817735
 C   -2.550412  -31.624910  -12.689126
 C   -3.159631  -31.533739  -11.354391
 C   -4.473510  -31.109839  -11.169366
 C   -5.011684  -31.034605   -9.897942
 C   -4.249105  -31.379704   -8.794639
 C   -2.944587  -31.812519   -8.969502
 C   -2.405149  -31.892542  -10.238490
 H   -2.097912  -28.496214  -17.833119
 H   -1.759264  -29.076481  -21.288272
 H   -2.248287  -31.291935  -21.063458
 H   -2.858365  -33.075206  -19.480197
 H   -3.098182  -32.587098  -17.077176
 H   -3.764744  -30.108105  -13.644199
 H   -0.791277  -32.024124  -16.044359
 H   -0.038950  -34.383149  -14.801358
 H    1.099693  -33.119735  -14.339488
 H    0.303903  -34.090435  -13.086481
 H   -5.087299  -30.858094  -12.021273
 H   -6.033222  -30.707735   -9.766768
 H   -4.672494  -31.316439   -7.802843
 H   -2.348066  -32.088283   -8.111971
 H   -1.392431  -32.230936  -10.391476
