36 
4p7m_ligand_ani-2x.xyz
 C   -2.043702  -29.764509  -17.890495
 C   -1.664116  -29.909589  -19.225799
 O   -0.751876  -29.025876  -19.710875
 C   -2.213726  -30.928847  -20.005803
 C   -3.146261  -31.796433  -19.445170
 C   -3.536067  -31.665839  -18.118068
 C   -2.968476  -30.647065  -17.357267
 O   -3.377854  -30.468546  -16.046016
 C   -2.735899  -31.160051  -15.052893
 C   -3.227938  -30.987880  -13.761944
 C   -1.646426  -31.997908  -15.252904
 C   -1.079963  -32.615544  -14.132388
 C    0.110224  -33.524151  -14.300429
 N   -1.534155  -32.440108  -12.895932
 C   -2.611976  -31.660964  -12.712231
 C   -3.092312  -31.539250  -11.306125
 C   -4.419033  -31.210192  -11.018248
 C   -4.846855  -31.090217   -9.700988
 C   -3.951954  -31.294800   -8.654650
 C   -2.630038  -31.630495   -8.933704
 C   -2.204893  -31.758900  -10.250146
 H   -1.618842  -28.978481  -17.275310
 H   -0.574061  -29.231147  -20.637236
 H   -1.915188  -31.040664  -21.046898
 H   -3.573968  -32.587102  -20.056111
 H   -4.262229  -32.330109  -17.660346
 H   -4.061937  -30.311006  -13.607651
 H   -1.226069  -32.180924  -16.235739
 H   -0.146280  -34.390914  -14.921545
 H    0.934568  -33.002615  -14.801725
 H    0.451983  -33.875950  -13.324033
 H   -5.134548  -31.063203  -11.823540
 H   -5.882027  -30.831681   -9.493527
 H   -4.284105  -31.197016   -7.624714
 H   -1.926179  -31.798356   -8.122286
 H   -1.179622  -32.034266  -10.480366
