21 
4pax_ligand_aiqm1.xyz
 C   39.870617   22.593859   22.024421
 O   38.584134   22.586765   21.580412
 C   40.852568   23.085754   21.140911
 N   40.449025   23.529242   19.880480
 C   41.371816   23.970626   19.103279
 C   41.057084   24.472820   17.726967
 N   42.707366   24.023770   19.451689
 C   43.221112   23.611529   20.671117
 O   44.410701   23.683960   20.915896
 C   42.184765   23.102961   21.576887
 C   42.547958   22.647472   22.852246
 C   41.570220   22.170530   23.699503
 C   40.232308   22.144287   23.284516
 H   38.029525   22.228314   22.278029
 H   41.600686   23.889116   16.982650
 H   39.989611   24.389951   17.549172
 H   41.366852   25.514317   17.629247
 H   43.384882   24.381143   18.795532
 H   43.588978   22.683628   23.135614
 H   41.825459   21.813752   24.688018
 H   39.465032   21.768204   23.953914
