21 
4pax_ligand_ani-2x.xyz
 C   39.862812   22.590798   22.029174
 O   38.583121   22.585039   21.584842
 C   40.853499   23.086068   21.140006
 N   40.457431   23.528555   19.887326
 C   41.378093   23.970494   19.106853
 C   41.058713   24.474056   17.728648
 N   42.715129   24.024619   19.445958
 C   43.226631   23.610730   20.672212
 O   44.416955   23.686481   20.910503
 C   42.187075   23.101777   21.578507
 C   42.543899   22.646714   22.850193
 C   41.568906   22.169732   23.699141
 C   40.227803   22.143570   23.283922
 H   38.014858   22.227322   22.280220
 H   41.592825   23.887764   16.974751
 H   39.985793   24.391559   17.551816
 H   41.360274   25.520780   17.624712
 H   43.395684   24.385516   18.785979
 H   43.592034   22.684139   23.132284
 H   41.825977   21.811567   24.691592
 H   39.463189   21.764720   23.961861
