41 
4ph4_ligand_xtb.xyz
 C    2.247159    6.407484  -13.415420
 C    1.174241    5.580478  -13.085479
 C    0.519361    4.775123  -14.115403
 C   -0.923711   -0.633260  -13.451757
 C    0.789418    5.592319  -11.732157
 C   -0.414907    4.857310  -11.227583
 C   -1.672833    5.543001  -11.724811
 C   -2.896564    5.566530  -10.861521
 C   -2.110407    6.823428  -11.081956
 N    3.086222    7.838573  -10.360517
 C    2.456208    7.077903  -11.274457
 N    1.434424    6.331548  -10.849201
 N    2.886572    7.151542  -12.537830
 N    0.250336    3.502676  -13.832220
 C   -0.338066    2.776333  -14.773112
 N   -0.703889    3.214168  -15.984114
 C   -0.426918    4.474471  -16.262945
 C    0.201744    5.318298  -15.363385
 N   -0.643727    1.467925  -14.548008
 C   -0.375916    0.653258  -13.466821
 C   -0.659542   -1.456831  -12.374558
 N    0.090951   -1.100888  -11.344534
 C    0.616357    0.112734  -11.366300
 C    0.425379    1.026632  -12.387563
 H    2.624086    6.454262  -14.429952
 H   -1.542983   -0.974180  -14.268430
 H   -0.390641    4.874957  -10.138154
 H   -0.398594    3.825696  -11.579093
 H   -1.824154    5.450714  -12.794337
 H   -2.842706    5.095889   -9.891866
 H   -3.862106    5.473053  -11.335211
 H   -2.536525    7.597087  -11.702677
 H   -1.514041    7.200474  -10.265334
 H    2.847044    7.730300   -9.392319
 H    3.908989    8.342814  -10.634760
 H   -0.728033    4.812850  -17.246471
 H    0.410948    6.348122  -15.598415
 H   -1.150042    1.046701  -15.316685
 H   -1.070342   -2.457111  -12.330417
 H    1.230802    0.368548  -10.512973
 H    0.885702    1.998671  -12.362654
