41 
4ph4_ligand_aiqm1.xyz
 C    2.280493    6.496690  -13.410062
 C    1.240355    5.636716  -13.074548
 C    0.583936    4.817095  -14.112069
 C   -1.075587   -0.522040  -13.357976
 C    0.849984    5.634069  -11.718987
 C   -0.308080    4.813261  -11.201969
 C   -1.633088    5.272493  -11.774878
 C   -2.823799    5.367545  -10.862980
 C   -2.168693    6.621705  -11.374260
 N    3.017620    8.047629  -10.369928
 C    2.450061    7.204590  -11.277236
 N    1.465828    6.414701  -10.833176
 N    2.903589    7.281822  -12.535103
 N    0.297086    3.543762  -13.816846
 C   -0.340821    2.840173  -14.753985
 N   -0.724210    3.272837  -15.965063
 C   -0.407484    4.537272  -16.249060
 C    0.255655    5.368735  -15.356202
 N   -0.676690    1.535205  -14.502295
 C   -0.423201    0.713972  -13.406736
 C   -0.840514   -1.379082  -12.293201
 N   -0.010817   -1.107752  -11.278590
 C    0.609392    0.074449  -11.341231
 C    0.454510    1.012547  -12.357670
 H    2.643498    6.542706  -14.431609
 H   -1.761573   -0.809672  -14.146310
 H   -0.329328    4.934551  -10.117321
 H   -0.156950    3.757160  -11.427854
 H   -1.839606    4.960892  -12.791688
 H   -2.670030    5.113591   -9.822401
 H   -3.790498    5.096728  -11.261518
 H   -2.699300    7.204664  -12.112709
 H   -1.565840    7.190988  -10.678605
 H    2.868563    7.825324   -9.401950
 H    3.900331    8.448603  -10.629530
 H   -0.707795    4.893777  -17.226021
 H    0.480887    6.396950  -15.595963
 H   -1.219015    1.129137  -15.245694
 H   -1.348828   -2.335249  -12.255214
 H    1.285686    0.295738  -10.523787
 H    0.993569    1.945320  -12.329175
