51 
4phw_ligand_aiqm1.xyz
 O   23.858575   77.653720   18.132696
 C   24.453649   78.314205   18.957388
 C   24.789307   79.742534   18.673663
 N   24.710921   80.722050   19.639205
 C   25.041550   81.912741   19.028724
 C   25.125838   83.229302   19.494623
 C   25.523385   84.190471   18.580264
 C   25.830434   83.854559   17.246162
 C   25.746103   82.549775   16.791902
 C   25.341935   81.562141   17.700581
 N   25.168680   80.201692   17.507047
 C   24.836347   77.747091   20.283831
 C   25.904814   78.237557   21.046175
 C   26.215388   77.661622   22.270936
 C   25.455319   76.591030   22.728232
 O   25.845295   75.983333   23.908006
 C   24.974910   75.949842   24.961953
 N   23.871347   76.664541   24.893660
 C   23.047613   76.640611   25.954447
 C   23.310237   75.907161   27.095006
 C   24.491535   75.157945   27.130925
 C   25.366394   75.155550   26.055105
 C   26.646336   74.344240   26.091675
 C   27.916999   75.194979   26.016646
 C   29.136456   74.290156   26.125697
 O   29.148142   73.317517   25.095311
 C   28.012869   72.472915   25.177082
 C   26.722364   73.263305   25.009912
 C   24.398711   76.078887   21.979537
 C   24.098648   76.654904   20.755923
 H   24.366020   80.586002   20.573979
 H   24.891645   83.487699   20.519236
 H   25.600376   85.222115   18.897873
 H   26.137546   84.635585   16.564845
 H   25.980175   82.289065   15.769809
 H   26.501488   79.063127   20.679391
 H   27.040759   78.016943   22.872548
 H   22.149621   77.237969   25.864335
 H   22.623506   75.911637   27.929457
 H   24.732325   74.566735   28.005589
 H   26.655872   73.830803   27.065309
 H   27.945207   75.709252   25.053732
 H   27.932681   75.947139   26.810818
 H   29.149026   73.786607   27.104049
 H   30.059518   74.857556   26.019209
 H   28.014996   71.951079   26.145867
 H   28.127070   71.732775   24.387189
 H   26.724216   73.738503   24.026715
 H   25.860652   72.591989   25.066399
 H   23.820488   75.250776   22.370003
 H   23.291710   76.272268   20.144332
