51 
4phw_ligand_ani-2x.xyz
 O   24.245213   77.559247   18.037680
 C   24.697430   78.261353   18.916941
 C   24.940341   79.715900   18.651333
 N   24.937278   80.667448   19.646894
 C   25.155799   81.886161   19.038809
 C   25.252066   83.188720   19.524083
 C   25.490810   84.188503   18.594150
 C   25.628592   83.899438   17.222672
 C   25.529772   82.602475   16.747362
 C   25.288819   81.577652   17.673021
 N   25.137876   80.219961   17.465242
 C   24.994166   77.704908   20.272597
 C   26.062784   78.143588   21.057835
 C   26.297397   77.564209   22.296970
 C   25.447705   76.564555   22.758175
 O   25.775301   75.965173   23.960778
 C   24.900972   75.909045   25.003298
 N   23.775411   76.588867   24.923027
 C   22.965325   76.575322   25.988052
 C   23.244038   75.876085   27.147547
 C   24.432578   75.149699   27.199550
 C   25.299890   75.144976   26.117693
 C   26.598101   74.363248   26.133188
 C   27.843164   75.255284   26.019134
 C   29.097765   74.393882   26.027176
 O   29.080061   73.433456   24.993542
 C   27.989003   72.547293   25.118018
 C   26.657322   73.280047   25.046364
 C   24.391835   76.098726   21.980494
 C   24.187341   76.659812   20.729889
 H   24.771340   80.506127   20.628081
 H   25.146773   83.417616   20.581487
 H   25.573737   85.218617   18.929964
 H   25.815346   84.710024   16.523129
 H   25.633171   82.371420   15.690367
 H   26.733719   78.917952   20.694231
 H   27.132484   77.881384   22.913098
 H   22.048744   77.153846   25.896256
 H   22.556429   75.891116   27.987154
 H   24.685626   74.581998   28.093445
 H   26.647040   73.853861   27.109045
 H   27.787010   75.820279   25.083951
 H   27.875201   75.974517   26.846916
 H   29.195691   73.889340   27.005350
 H   29.994987   74.999708   25.869035
 H   28.059939   71.997540   26.073825
 H   28.086234   71.823013   24.303877
 H   26.547597   73.755928   24.067933
 H   25.829435   72.571390   25.169369
 H   23.743049   75.312103   22.354772
 H   23.387292   76.299188   20.090199
