30 
4pid_ligand_dft.xyz
 C   -1.410634   -0.502029    0.359244
 C   -2.189084    0.431844    1.047223
 C    3.148545   -0.470151    0.009837
 C   -5.234538    0.544046   -0.916621
 C    3.098394    0.702065    0.770644
 C    3.929195    1.773118    0.464068
 C    4.821113    1.685561   -0.603918
 C    4.878411    0.521664   -1.362879
 C    4.043210   -0.550652   -1.055964
 N   -3.407541    0.772442    0.648406
 C   -3.869729    0.160860   -0.448680
 N   -3.231986   -0.766816   -1.164972
 C   -2.007627   -1.091770   -0.750514
 C   -0.045614   -0.830970    0.884265
 O    0.227425   -0.654776    2.062707
 N    0.830697   -1.339789   -0.025821
 C    2.217380   -1.619384    0.329346
 N   -5.981443    1.403334   -0.358663
 H   -1.798702    0.905644    1.944143
 H   -5.577839    0.021571   -1.811047
 H    2.404356    0.763077    1.604586
 H    3.885668    2.678095    1.062837
 H    5.471317    2.522522   -0.840377
 H    5.573009    0.445562   -2.194207
 H    4.092971   -1.460700   -1.650032
 H   -1.503948   -1.871838   -1.319165
 H    0.633805   -1.198220   -1.005894
 H    2.222125   -1.836807    1.399324
 H    2.528752   -2.524344   -0.201972
 H   -5.493128    1.784243    0.461194
