45 
4pl3_ligand_dft.xyz
 C    0.859946   -1.277230    0.113562
 C   -1.372984   -2.088568    0.395703
 C    0.016076    1.622633   -2.038282
 O   -1.241412    1.098527   -1.704159
 C   -2.250402    2.074744   -1.706326
 C   -3.568152    1.424139   -1.338674
 O   -3.557669    1.062203    0.019789
 C   -3.992931   -0.240647    0.341597
 C   -3.156358   -0.760806    1.509717
 C   -1.703893   -0.862024    1.125131
 C   -0.774647    0.112685    1.291796
 C   -1.077053    1.438414    1.930615
 C    0.578845   -0.102618    0.802408
 C    1.614192    0.842003    0.946978
 C    2.866611    0.616791    0.412767
 O    3.920474    1.466047    0.493875
 C    3.718894    2.687247    1.163385
 C    3.114267   -0.585284   -0.290057
 O    4.362477   -0.742104   -0.790979
 C    2.119290   -1.542642   -0.445957
 C    2.395023   -2.820651   -1.195349
 O   -0.089359   -2.233198   -0.061435
 O   -2.148770   -2.985356    0.154609
 H    0.015288    2.063926   -3.047994
 H    0.337072    2.395268   -1.321371
 H    0.733355    0.799784   -2.004094
 H   -2.340146    2.540336   -2.703511
 H   -2.021686    2.875450   -0.982920
 H   -3.714378    0.545333   -1.980997
 H   -4.388602    2.129838   -1.538085
 H   -3.865412   -0.917212   -0.513739
 H   -5.059354   -0.232873    0.612376
 H   -3.526739   -1.755177    1.774824
 H   -3.298595   -0.113170    2.378549
 H   -0.841118    2.242596    1.224502
 H   -2.126842    1.545534    2.192591
 H   -0.465989    1.591001    2.828163
 H    1.414918    1.762653    1.479358
 H    2.938466    3.289196    0.677907
 H    3.449307    2.531290    2.216549
 H    4.669073    3.219646    1.110396
 H    4.418600   -1.596693   -1.235189
 H    3.185747   -3.409140   -0.711716
 H    1.500797   -3.442938   -1.232003
 H    2.699981   -2.622714   -2.231290
