45 
4pl3_ligand_aiqm1.xyz
 C   62.614875   43.139125    1.170049
 C   61.551505   42.439739   -0.859848
 C   66.411439   46.652781   -2.103872
 O   65.482816   45.670217   -2.494430
 C   65.374380   45.586967   -3.898045
 C   64.416983   44.478983   -4.244606
 O   63.163719   44.800081   -3.696194
 C   62.213197   43.757447   -3.793141
 C   61.122166   44.000911   -2.761935
 C   61.630036   43.815581   -1.348051
 C   62.195570   44.791747   -0.587068
 C   62.341809   46.212971   -1.057298
 C   62.725502   44.450501    0.725812
 C   63.377000   45.386402    1.557867
 C   63.878525   45.009084    2.787025
 O   64.523425   45.823143    3.663675
 C   64.714556   47.166971    3.259881
 C   63.732280   43.670604    3.212679
 O   64.241088   43.365727    4.435236
 C   63.105478   42.723743    2.417191
 C   62.968933   41.302219    2.885730
 O   62.018299   42.180076    0.403196
 O   61.099780   41.507042   -1.480088
 H   67.418614   46.408451   -2.461261
 H   66.133411   47.638713   -2.493193
 H   66.415284   46.680741   -1.016863
 H   66.352477   45.370825   -4.347832
 H   65.012062   46.538927   -4.306357
 H   64.784066   43.528109   -3.839157
 H   64.354787   44.382204   -5.336354
 H   62.685629   42.785878   -3.601834
 H   61.788772   43.732368   -4.805093
 H   60.327841   43.278086   -2.945084
 H   60.711774   44.999625   -2.910544
 H   61.782818   46.398966   -1.968796
 H   62.006976   46.917793   -0.294431
 H   63.391886   46.420509   -1.274469
 H   63.491448   46.404215    1.216489
 H   65.321927   47.226374    2.353091
 H   63.760016   47.670542    3.087395
 H   65.236351   47.651951    4.077855
 H   64.083635   42.433998    4.609001
 H   62.396353   41.243758    3.816306
 H   62.459851   40.701766    2.140464
 H   63.947459   40.850139    3.073400
