43 
4pl5_ligand_ani-2x.xyz
 C   87.204193  -13.586189   72.175980
 C   86.192668  -14.512612   71.913602
 C   87.945408  -12.937266   71.067378
 C   89.041971  -13.059202   68.901386
 C   89.365083  -11.692522   68.950975
 C   88.963575  -10.962396   70.082569
 C   90.336286  -10.596955   65.554070
 C   91.896155   -9.711350   67.120218
 C   90.731564   -9.815199   68.097858
 C   84.376974  -16.131066   72.654217
 C   85.472444  -15.136983   72.929717
 C   85.793787  -14.826200   74.248475
 O   85.112990  -15.426899   75.255843
 C   86.810976  -13.899564   74.534588
 O   87.006804  -13.700045   75.873943
 C   88.018744  -12.789814   76.253534
 C   87.505308  -13.277653   73.510979
 C   88.344997  -13.657252   69.937512
 C   88.275219  -11.579712   71.112910
 N   90.054797  -11.086853   67.921710
 C   90.143781  -11.685922   66.602843
 O   91.498808   -9.817579   65.765783
 H   85.943590  -14.739828   70.879495
 H   89.344163  -13.662070   68.050495
 H   89.183996   -9.901811   70.155595
 H   89.446181   -9.948508   65.534835
 H   90.438119  -11.047115   64.561587
 H   92.640436  -10.488053   67.356636
 H   92.388292   -8.739475   67.226409
 H   90.049203   -8.960212   67.955947
 H   91.130135   -9.751255   69.117460
 H   84.231785  -16.265237   71.578292
 H   84.610693  -17.105982   73.095680
 H   83.428512  -15.802872   73.092889
 H   85.474970  -15.085689   76.088683
 H   89.004937  -13.129463   75.914179
 H   87.821147  -11.788417   75.852062
 H   88.005812  -12.751607   77.343399
 H   88.298134  -12.568541   73.731454
 H   88.117320  -14.719300   69.872721
 H   87.973847  -10.984215   71.972409
 H   90.966745  -12.417295   66.535319
 H   89.211852  -12.219023   66.379664
