43 
4pl5_ligand_aiqm1.xyz
 C   87.140948  -13.538922   72.084704
 C   86.041340  -14.385323   71.934832
 C   87.755102  -12.876352   70.917137
 C   88.411041  -12.891585   68.574256
 C   88.936930  -11.591567   68.667868
 C   88.862296  -10.948913   69.914872
 C   91.499598  -11.120852   66.170316
 C   91.412375   -9.526300   67.904830
 C   89.924145   -9.612130   67.558558
 C   84.246710  -15.922378   72.862064
 C   85.435817  -15.021887   73.021624
 C   85.966423  -14.802657   74.287963
 O   85.404003  -15.411559   75.367598
 C   87.073121  -13.960557   74.459268
 O   87.482643  -13.846980   75.762262
 C   88.624388  -13.044643   76.006260
 C   87.655587  -13.327392   73.373912
 C   87.837650  -13.515321   69.675236
 C   88.277988  -11.584059   71.007598
 N   89.463577  -10.982513   67.530895
 C   90.197737  -11.812866   66.576465
 O   92.146112  -10.596699   67.314381
 H   85.625588  -14.548520   70.947181
 H   88.449133  -13.412988   67.626503
 H   89.258078   -9.950750   70.044453
 H   91.314638  -10.326866   65.438498
 H   92.188724  -11.838657   65.727865
 H   91.567483   -9.607096   68.981531
 H   91.816316   -8.565365   67.562077
 H   89.758139   -9.186710   66.564732
 H   89.326920   -9.026465   68.251716
 H   83.941487  -15.981645   71.816898
 H   84.472395  -16.927789   73.221101
 H   83.405389  -15.558561   73.453664
 H   85.914187  -15.135152   76.138610
 H   89.495184  -13.428704   75.471264
 H   88.446260  -12.009090   75.708013
 H   88.801564  -13.090964   77.076656
 H   88.512868  -12.682809   73.507885
 H   87.452110  -14.522427   69.566311
 H   88.224394  -11.052524   71.951207
 H   90.442456  -12.767841   67.046517
 H   89.593556  -12.022819   65.685720
