18 
4pml_ligand_aiqm1.xyz
 N   27.373866   48.896719    0.924282
 C   26.137831   49.319673    0.418505
 C   25.368292   48.465383   -0.375330
 C   25.622416   50.575066    0.756729
 C   24.370533   50.970076    0.294712
 C   23.611195   50.123213   -0.502449
 C   24.109482   48.862991   -0.824876
 C   23.255648   47.968467   -1.670587
 O   22.370791   48.401190   -2.384364
 N   23.546659   46.630398   -1.602591
 H   27.827082   48.199042    0.354271
 H   28.005343   49.654123    1.133343
 H   25.777486   47.501654   -0.662912
 H   26.206123   51.241045    1.382131
 H   23.993744   51.950158    0.558024
 H   22.644940   50.414293   -0.884551
 H   22.872511   46.027625   -2.042568
 H   24.013757   46.267383   -0.791769
