54 
4pmt_ligand_ani-2x.xyz
 C   30.052451  -35.368711   -2.718166
 C   28.319068  -35.493731   -1.278828
 N   30.245562  -29.669555   -5.540491
 C   31.829554  -35.120509   -4.323688
 N   22.278708  -30.785615   -3.904321
 C   30.495965  -33.084555   -7.176193
 C   30.696487  -30.848251   -5.973951
 C   28.982073  -29.355048   -5.819689
 C   28.126417  -30.182291   -6.540691
 C   28.620792  -31.398265   -6.994919
 C   26.031271  -32.738152   -3.844689
 C   23.974953  -32.146802   -2.736574
 C   25.575338  -32.062807   -4.982247
 C   20.445105  -29.602147   -2.828457
 C   20.268999  -30.092649   -5.092046
 C   21.371030  -31.135714   -4.993312
 O   19.568016  -29.977351   -3.870173
 C   21.562398  -30.620077   -2.648823
 C   23.509768  -31.468230   -3.869703
 C   25.213157  -32.776341   -2.719897
 C   24.337553  -31.442526   -4.998352
 N   27.304715  -33.319802   -3.914345
 C   27.984936  -34.171238   -3.092711
 N   27.503397  -34.659551   -1.968949
 N   29.540862  -35.874900   -1.563719
 C   29.306717  -34.520420   -3.541605
 N   29.736299  -33.996896   -4.711259
 C   30.966750  -34.271004   -5.088113
 C   31.374281  -35.662431   -3.157895
 N   31.430188  -33.694056   -6.244008
 C   29.934121  -31.759228   -6.706027
 H   27.892537  -35.888518   -0.359757
 H   32.837379  -35.320115   -4.683208
 H   29.648022  -33.758120   -7.363367
 H   31.027736  -32.952606   -8.126280
 H   31.729240  -31.085925   -5.730018
 H   28.634127  -28.393443   -5.448509
 H   27.102921  -29.872528   -6.742956
 H   27.993836  -32.068875   -7.581477
 H   23.359335  -32.202909   -1.844375
 H   26.198907  -32.042702   -5.870146
 H   19.843579  -29.533765   -1.916926
 H   20.878318  -28.610947   -3.035186
 H   19.535017  -30.380974   -5.851025
 H   20.700548  -29.119702   -5.375358
 H   20.919030  -32.130692   -4.833797
 H   21.920457  -31.175741   -5.938266
 H   22.254533  -30.256263   -1.881122
 H   21.124061  -31.571205   -2.295157
 H   25.552169  -33.296799   -1.832235
 H   24.009562  -30.904245   -5.883540
 H   27.845968  -33.077515   -4.737670
 H   31.998311  -36.314146   -2.553057
 H   32.229376  -34.151616   -6.652830
