54 
4pmt_ligand_xtb.xyz
 C   30.058442  -35.034445   -2.791945
 C   28.388676  -34.920948   -1.280209
 N   30.692570  -30.095191   -5.246436
 C   31.778234  -35.073334   -4.452333
 N   22.119364  -30.947137   -3.875002
 C   30.490653  -33.175423   -7.398809
 C   30.999479  -31.189899   -5.915543
 C   29.450510  -29.648744   -5.309617
 C   28.460847  -30.267807   -6.058102
 C   28.793014  -31.414953   -6.758563
 C   25.931738  -32.723106   -4.050025
 C   23.943665  -32.186990   -2.804882
 C   25.356234  -32.123374   -5.170575
 C   20.455449  -29.590156   -2.762335
 C   20.134728  -30.110160   -4.992935
 C   21.134350  -31.263229   -4.892511
 O   19.501870  -29.881666   -3.755956
 C   21.476593  -30.721444   -2.597456
 C   23.360624  -31.580382   -3.919524
 C   25.205131  -32.745125   -2.863453
 C   24.102085  -31.559025   -5.105487
 N   27.203239  -33.265726   -4.172780
 C   27.959232  -33.943116   -3.284470
 N   27.545984  -34.244683   -2.064512
 N   29.594988  -35.327576   -1.553364
 C   29.268088  -34.337689   -3.725521
 N   29.678937  -34.016247   -4.963935
 C   30.901334  -34.364527   -5.315925
 C   31.359203  -35.410455   -3.200341
 N   31.305238  -34.043698   -6.578425
 C   30.090388  -31.906436   -6.688154
 H   28.009470  -35.152272   -0.292314
 H   32.765935  -35.333548   -4.804455
 H   29.584004  -33.720747   -7.684681
 H   31.052732  -32.939319   -8.306308
 H   32.028902  -31.514233   -5.823762
 H   29.244816  -28.755120   -4.735997
 H   27.458574  -29.868770   -6.082805
 H   28.055745  -31.930249   -7.360224
 H   23.405482  -32.242847   -1.872060
 H   25.904241  -32.097753   -6.101426
 H   19.897156  -29.440564   -1.836779
 H   20.989471  -28.662705   -3.020983
 H   19.341844  -30.345593   -5.704851
 H   20.661195  -29.199164   -5.317155
 H   20.586267  -32.181815   -4.622565
 H   21.618276  -31.418673   -5.854876
 H   22.222367  -30.412643   -1.864391
 H   20.958403  -31.624521   -2.235319
 H   25.637125  -33.215405   -1.996310
 H   23.697162  -31.080133   -5.984296
 H   27.680135  -33.128383   -5.058117
 H   31.988192  -35.947713   -2.507891
 H   32.293518  -34.083336   -6.763409
