21 
4pnm_ligand_dft.xyz
 C    1.664465   -1.070131   -0.000289
 O    1.741427   -2.421219   -0.000795
 C    0.371805   -0.492855   -0.000229
 N   -0.728618   -1.337579   -0.000482
 C   -1.892963   -0.790889    0.000080
 C   -3.135800   -1.629859    0.000564
 N   -2.085652    0.573955    0.000698
 C   -1.063539    1.519107   -0.000179
 O   -1.311908    2.711214   -0.001197
 C    0.271958    0.908980    0.000053
 C    1.405991    1.729623    0.000463
 C    2.655651    1.144655    0.000741
 C    2.782869   -0.249968    0.000276
 H    2.671324   -2.678492    0.000449
 H   -3.746715   -1.423056   -0.885413
 H   -2.849985   -2.681450    0.000765
 H   -3.745739   -1.422811    0.887158
 H   -3.023585    0.954310    0.000242
 H    1.272066    2.805436    0.000634
 H    3.550075    1.759489    0.001293
 H    3.773679   -0.699996    0.000421
