21 
4pnm_ligand_aiqm1.xyz
 C   26.161894   48.605901    0.978977
 O   27.162313   48.000997    1.675732
 C   25.326238   47.776616    0.203867
 N   25.574033   46.403026    0.199368
 C   24.791790   45.679701   -0.518496
 C   24.961917   44.193143   -0.600210
 N   23.746453   46.188463   -1.264325
 C   23.408438   47.530701   -1.335184
 O   22.473611   47.914953   -2.012493
 C   24.288808   48.377737   -0.522451
 C   24.074135   49.762951   -0.490307
 C   24.904296   50.554409    0.275029
 C   25.947508   49.974816    1.008990
 H   27.646212   48.679619    2.153288
 H   25.137473   43.893314   -1.634377
 H   25.803395   43.892971    0.016057
 H   24.055702   43.693650   -0.254520
 H   23.167190   45.567328   -1.808325
 H   23.260086   50.172161   -1.069274
 H   24.758859   51.625285    0.315970
 H   26.599249   50.600660    1.610486
