17 
4pnn_ligand_ani-2x.xyz
 C   24.501133   51.180939   -0.208350
 C   25.629869   50.656428    0.444090
 C   23.657853   50.332482   -0.896152
 C   25.903507   49.305751    0.405394
 C   24.552408   46.310962   -0.958608
 C   23.925606   48.960618   -0.942128
 C   25.051708   48.429681   -0.291928
 C   23.020474   48.066410   -1.676935
 N   25.360029   47.065498   -0.309852
 N   23.429737   46.732379   -1.623166
 O   22.014472   48.379374   -2.284674
 H   24.298241   52.247324   -0.168552
 H   26.295289   51.324310    0.986473
 H   22.774604   50.697412   -1.414137
 H   26.771764   48.885420    0.904934
 H   24.736194   45.238606   -1.010112
 H   22.838812   46.072806   -2.115796
