20 
4pnq_ligand_aiqm1.xyz
 C   24.512945   46.058978   -1.064872
 C   25.374108   46.806163   -0.348828
 C   25.154240   48.231548   -0.251914
 N   27.149722   48.522700    1.117358
 C   26.029984   49.074327    0.469234
 C   25.738532   50.426934    0.577171
 C   24.601853   50.970344   -0.032430
 C   23.756092   50.167648   -0.770126
 C   24.034364   48.799746   -0.880870
 C   23.113482   47.966444   -1.672746
 O   22.130563   48.391040   -2.261019
 N   23.441584   46.627462   -1.719940
 H   24.604949   44.987744   -1.164664
 H   26.177913   46.324441    0.186882
 H   27.623636   47.824496    0.563317
 H   27.808452   49.229605    1.405059
 H   26.402064   51.068946    1.148412
 H   24.399426   52.027880    0.072776
 H   22.879592   50.555533   -1.266677
 H   22.809999   46.053921   -2.255322
