47 
4poh_ligand_ani-2x.xyz
 C   66.160201   45.752972   29.052178
 C   67.635175   45.435293   29.371227
 C   68.322416   46.630830   30.030783
 C   67.590573   47.015458   31.295551
 C   68.263146   47.409670   32.442062
 C   67.565939   47.708987   33.604631
 C   66.180396   47.576791   33.625355
 C   65.464058   47.191205   32.501312
 C   63.981370   46.951278   32.656461
 C   66.172876   46.981529   31.287086
 C   65.533978   46.760595   29.989116
 C   64.394551   47.421933   29.627276
 C   64.027036   47.874514   28.288156
 C   65.125942   48.287708   27.328838
 C   62.727661   48.026189   27.940662
 C   61.587204   47.573530   28.720086
 C   60.318177   47.820368   28.349090
 C   59.103695   47.407478   29.059509
 C   59.258179   46.645902   30.359978
 C   57.925087   47.784323   28.541396
 C   56.572234   47.309918   28.956554
 O   55.602026   48.017903   28.927117
 O   56.467034   46.023299   29.369633
 H   65.569505   44.825699   29.087731
 H   66.059858   46.112395   28.023935
 H   68.163028   45.137200   28.458266
 H   67.687580   44.581818   30.060295
 H   68.336962   47.486911   29.336695
 H   69.369951   46.400740   30.257973
 H   69.349870   47.475778   32.429325
 H   68.099880   48.015494   34.500429
 H   65.637646   47.764112   34.550676
 H   63.758200   46.611961   33.673929
 H   63.396936   47.869207   32.510359
 H   63.611154   46.184663   31.969688
 H   63.713716   47.751706   30.409547
 H   65.352796   47.514337   26.582607
 H   64.840121   49.189340   26.776469
 H   66.042126   48.508202   27.881069
 H   62.492765   48.527116   27.001205
 H   61.796533   46.997428   29.621581
 H   60.140571   48.381968   27.433141
 H   58.312235   46.553907   30.899319
 H   59.671933   45.645570   30.191473
 H   59.957608   47.173878   31.015345
 H   57.896043   48.566691   27.786665
 H   57.297828   45.558005   29.195921
