47 
4poh_ligand_xtb.xyz
 C   64.721933   46.093374   29.261233
 C   65.622081   44.917961   29.657989
 C   66.994718   45.422987   30.103149
 C   66.782817   46.250356   31.334401
 C   67.518185   46.071239   32.491082
 C   67.233578   46.829198   33.614306
 C   66.197752   47.743030   33.582246
 C   65.445902   47.945973   32.430540
 C   64.312768   48.928697   32.475321
 C   65.756090   47.201791   31.288619
 C   65.075042   47.363162   29.996856
 C   64.920439   48.580142   29.455158
 C   64.344544   48.884860   28.150388
 C   65.217856   49.711868   27.255839
 C   63.114728   48.491514   27.759807
 C   62.157729   47.850987   28.607219
 C   60.976303   47.375365   28.165716
 C   59.970043   46.726229   28.970485
 C   60.177749   46.678665   30.458866
 C   58.875956   46.223165   28.357607
 C   57.740478   45.508235   28.964107
 O   56.602876   45.659490   28.607052
 O   58.032643   44.614223   29.940891
 H   63.680207   45.826942   29.457204
 H   64.800442   46.284225   28.188235
 H   65.720056   44.230466   28.816706
 H   65.176072   44.367128   30.489538
 H   67.436300   46.029390   29.306870
 H   67.666441   44.588995   30.310691
 H   68.312215   45.338761   32.514301
 H   67.808885   46.695511   34.518427
 H   65.960839   48.314085   34.468803
 H   63.818639   48.883621   33.444225
 H   64.683150   49.945298   32.341568
 H   63.582309   48.730689   31.695360
 H   65.344151   49.431858   29.973291
 H   64.739151   49.896823   26.297777
 H   65.435915   50.668985   27.729631
 H   66.169603   49.208678   27.084745
 H   62.786820   48.719593   26.753323
 H   62.421777   47.782348   29.652527
 H   60.753801   47.448725   27.108869
 H   59.258797   46.444821   30.989447
 H   60.942562   45.946599   30.723461
 H   60.518884   47.651645   30.807184
 H   58.739613   46.401081   27.299665
 H   58.984960   44.533020   30.076978
