40 
4pp9_ligand_ani-2x.xyz
 C    3.357146   29.354613  -20.326821
 C    2.921786   28.119926  -19.764612
 C    2.662286   27.020928  -20.537882
 C    2.838844   27.140936  -21.948859
 C    3.268578   28.369697  -22.500527
 C    3.534764   29.493984  -21.684010
 C    3.327679   28.132510  -23.875859
 N    2.948232   26.837283  -24.031998
 N    2.656263   26.206784  -22.894088
 C    3.713282   29.096515  -24.928502
 O    4.238716   30.158038  -24.628430
 N    3.445363   28.738462  -26.224893
 C    3.727864   29.527235  -27.355578
 C    4.393350   30.773969  -27.433089
 N    4.482124   31.188509  -28.690573
 N    3.871880   30.244995  -29.419921
 C    3.412886   29.216633  -28.660519
 C    3.877077   30.351704  -30.868339
 C    5.151419   29.828516  -31.494700
 C    6.292681   30.630429  -31.518804
 C    7.482447   30.151148  -32.058305
 C    7.548303   28.864510  -32.579018
 C    6.407883   28.057136  -32.554364
 C    5.214134   28.540830  -32.015713
 C    6.452318   26.720580  -33.088815
 N    6.487498   25.645293  -33.518687
 H    3.549826   30.192758  -19.664031
 H    2.794634   28.054636  -18.686633
 H    2.332725   26.079318  -20.115173
 H    3.868960   30.415334  -22.146137
 H    2.976280   26.260797  -24.864318
 H    2.899691   27.907687  -26.397501
 H    4.799670   31.356167  -26.618925
 H    2.888563   28.374316  -29.094607
 H    3.756890   31.415592  -31.093164
 H    3.002169   29.817057  -31.252071
 H    6.246726   31.634378  -31.100608
 H    8.363839   30.786274  -32.073407
 H    8.473166   28.482277  -33.002078
 H    4.342059   27.890248  -32.020445
