38 
4ptg_ligand_ani-2x.xyz
 C    5.286816    0.266695   32.746886
 O    5.783581   -1.050504   32.961193
 C    5.444978   -1.647716   34.113543
 C    5.906514   -2.950552   34.381236
 C    5.494870   -3.469799   35.602070
 N    4.726398   -2.812696   36.469512
 C    4.353829   -1.589361   36.104635
 N    4.682198   -0.978335   34.959580
 C    3.501722   -0.826681   37.036638
 C    3.105192   -1.376473   38.255937
 C    2.305544   -0.604813   39.082041
 N    1.895501    0.630266   38.776812
 C    2.285636    1.135310   37.608300
 C    3.089267    0.452145   36.697860
 N    1.810792    2.432460   37.370470
 C    2.017971    3.241728   36.279635
 O    2.684472    2.925613   35.307460
 C    1.354117    4.579750   36.359114
 C    0.874551    5.158421   35.050116
 C    2.088071    5.721912   35.699471
 C    6.772175   -3.829613   33.524651
 O    7.083509   -4.947892   33.910250
 N    7.181298   -3.334283   32.333025
 H    4.194130    0.265481   32.751677
 H    5.647466    0.939940   33.528330
 H    5.667229    0.570063   31.771587
 H    5.815391   -4.473258   35.873339
 H    3.419416   -2.375542   38.535551
 H    1.972332   -0.992600   40.042198
 H    3.371044    0.919103   35.765056
 H    1.242653    2.788127   38.125087
 H    0.776836    4.789648   37.255748
 H   -0.044620    5.736255   35.061119
 H    1.029632    4.530862   34.177492
 H    3.046467    5.467389   35.256696
 H    2.027786    6.698552   36.170033
 H    7.760148   -3.935545   31.769232
 H    6.918986   -2.414357   32.023219
