52 
4puz_ligand_ani-2x.xyz
 C  -19.987072    0.335288   44.221212
 C  -21.505729    0.285646   44.131650
 N  -22.017912   -0.693967   45.077650
 C  -21.403355   -2.002577   44.872774
 C  -19.890293   -1.869983   44.945212
 O  -19.415947   -0.936822   43.995546
 C  -23.399859   -0.681653   45.347275
 C  -24.316852    0.082372   44.613629
 C  -25.660928    0.091283   44.953002
 C  -26.143385   -0.662361   46.026195
 N  -27.513286   -0.582850   46.323219
 C  -28.325175   -1.453562   46.989777
 N  -27.920854   -2.600749   47.467472
 C  -28.841251   -3.380625   48.128504
 C  -30.154086   -3.037632   48.283284
 N  -30.576475   -1.833680   47.757174
 C  -31.792095   -1.196609   47.728345
 C  -31.564728   -0.020432   47.052866
 N  -30.261846    0.097491   46.662940
 C  -29.690038   -1.011460   47.104484
 C  -28.319737   -4.672387   48.651796
 C  -27.235821   -5.295256   47.977372
 C  -26.722556   -6.502716   48.382991
 C  -27.294604   -7.120075   49.516267
 C  -27.084846   -8.322382   50.262966
 N  -27.922942   -8.415150   51.273906
 N  -28.688296   -7.304308   51.220861
 C  -28.357161   -6.485634   50.184508
 C  -28.890734   -5.260742   49.767574
 C  -25.235219   -1.419234   46.768321
 C  -23.891987   -1.427334   46.424707
 H  -19.687530    0.716215   45.210170
 H  -19.582964    1.004388   43.455450
 H  -21.909728    1.274009   44.377982
 H  -21.792215    0.045079   43.091415
 H  -21.686906   -2.429843   43.894720
 H  -21.744654   -2.699909   45.643146
 H  -19.409950   -2.826168   44.715218
 H  -19.591208   -1.564076   45.960152
 H  -23.986919    0.673100   43.765050
 H  -26.351893    0.693664   44.366376
 H  -28.005539    0.226113   45.960891
 H  -30.913449   -3.648042   48.750643
 H  -32.673133   -1.628803   48.176906
 H  -32.292188    0.748391   46.831422
 H  -26.816948   -4.787535   47.113998
 H  -25.897277   -6.963901   47.848448
 H  -26.355037   -9.101606   50.084826
 H  -29.696700   -4.797880   50.328241
 H  -25.584743   -2.005725   47.611210
 H  -23.196020   -2.010886   47.022067
 H  -29.408929   -7.158486   51.909190
