61 
4pv0_ligand_aiqm1.xyz
 O   -7.389889    3.505974   13.865389
 C   -6.881658    3.700088   12.794202
 O   -7.671901    3.926200   11.712520
 C   -5.408736    3.691890   12.565182
 C   -4.606641    3.111136   13.552278
 C   -3.230976    3.064278   13.395145
 C   -4.800204    4.237611   11.434269
 C   -3.421029    4.195306   11.258608
 C   -2.630581    3.589339   12.242586
 N   -1.231601    3.471582   12.146787
 C   -0.412048    3.884237   11.132855
 O   -0.810211    4.487818   10.151788
 C    1.039759    3.555374   11.303431
 C    1.947964    4.221896   10.478377
 C    3.305823    3.949714   10.576739
 C    1.507199    2.608468   12.207937
 C    2.871112    2.323413   12.312914
 C    3.772060    3.005609   11.490324
 C    3.293696    1.303874   13.292035
 C    4.597705    1.079834   13.626057
 N    2.253157    0.601941   13.859372
 C    2.516390   -0.312079   14.751939
 C    3.853715   -0.608719   15.159647
 N    4.299402   -1.482186   16.050604
 C    5.653291   -1.320002   16.026611
 C    6.031242   -0.345554   15.122567
 N    4.864748    0.103416   14.573384
 N    1.518557   -1.030404   15.340061
 C    0.136105   -0.757858   15.222475
 C   -0.441492   -0.473421   13.980528
 C   -1.794268   -0.172127   13.882913
 O   -2.410911    0.149952   12.711496
 C   -1.637741    0.094168   11.522187
 C   -0.663955   -0.779276   16.362276
 C   -2.023805   -0.495961   16.255987
 C   -2.601669   -0.178613   15.035538
 O   -3.920568    0.194684   14.996644
 C   -4.772854   -0.701873   14.278914
 H   -7.131497    3.962165   10.918977
 H   -5.081734    2.686526   14.425733
 H   -2.615984    2.577462   14.143303
 H   -5.393354    4.740967   10.676604
 H   -2.968665    4.626078   10.378672
 H   -0.786616    3.026130   12.931109
 H    1.566234    4.939177    9.765945
 H    4.008029    4.467116    9.935562
 H    0.835922    2.048686   12.837127
 H    4.832640    2.795414   11.541379
 H    5.447049    1.607950   13.232733
 H    6.300574   -1.906644   16.656476
 H    6.986473    0.053028   14.833306
 H    1.816299   -1.594154   16.120504
 H    0.182139   -0.446728   13.101446
 H   -0.780572    0.771862   11.564092
 H   -1.280145   -0.919719   11.334915
 H   -2.305586    0.405599   10.723128
 H   -0.234315   -1.011535   17.327801
 H   -2.656386   -0.493537   17.133368
 H   -4.508297   -0.724973   13.221363
 H   -4.704774   -1.707580   14.699642
 H   -5.781318   -0.316122   14.405251
