61 
4pv0_ligand_ani-2x.xyz
 O   -6.838488    5.789760   14.315729
 C   -6.539438    5.417820   13.210858
 O   -7.483069    5.347187   12.244586
 C   -5.148540    5.017036   12.832741
 C   -4.278605    4.644467   13.858036
 C   -2.976007    4.272937   13.573601
 C   -4.672449    5.047627   11.520645
 C   -3.366418    4.689079   11.220144
 C   -2.512389    4.287212   12.252028
 N   -1.183568    3.877755   12.027982
 C   -0.470452    3.872745   10.852244
 O   -0.916764    4.226679    9.773456
 C    0.950332    3.406181   10.992071
 C    1.854560    3.792749   10.004204
 C    3.186265    3.402863   10.089547
 C    1.386775    2.593773   12.037978
 C    2.718302    2.199009   12.129199
 C    3.622908    2.615169   11.150421
 C    3.128253    1.346270   13.276294
 C    4.414723    1.310771   13.726541
 N    2.096886    0.634781   13.844979
 C    2.376633   -0.148318   14.852351
 C    3.706104   -0.249564   15.394489
 N    4.153356   -0.969947   16.410958
 C    5.483757   -0.671038   16.472863
 C    5.851634    0.228905   15.500098
 N    4.698119    0.498128   14.806844
 N    1.453049   -0.922354   15.490964
 C    0.086727   -1.129623   15.237125
 C   -0.547236   -0.710565   14.063789
 C   -1.901795   -0.976143   13.875375
 O   -2.603127   -0.609078   12.767432
 C   -1.950303    0.194662   11.809479
 C   -0.649395   -1.811264   16.210325
 C   -1.999753   -2.067411   16.014586
 C   -2.641673   -1.664234   14.854977
 O   -3.985771   -1.884357   14.712971
 C   -4.331186   -2.869961   13.750454
 H   -7.136181    4.897714   11.462139
 H   -4.645142    4.656328   14.879757
 H   -2.310840    3.972423   14.379950
 H   -5.305992    5.392646   10.703095
 H   -2.999962    4.712984   10.202904
 H   -0.643430    3.728492   12.867128
 H    1.491809    4.398222    9.178583
 H    3.892591    3.713343    9.324252
 H    0.697272    2.217143   12.790236
 H    4.665144    2.308352   11.187271
 H    5.238016    1.890417   13.333654
 H    6.128484   -1.116456   17.218028
 H    6.792565    0.689697   15.241974
 H    1.841092   -1.436227   16.273396
 H    0.031173   -0.191216   13.311580
 H   -1.621938    1.149372   12.242083
 H   -1.088611   -0.326065   11.369350
 H   -2.686560    0.393748   11.028194
 H   -0.167521   -2.137552   17.128375
 H   -2.580302   -2.589527   16.769040
 H   -3.979447   -2.590719   12.752059
 H   -3.916601   -3.848256   14.028459
 H   -5.422275   -2.927676   13.751127
