29 
4q93_ligand_aiqm1.xyz
 C  -10.419110    9.543016   -7.653408
 C   -9.076008    9.732029   -7.353434
 C   -8.486482   10.938115   -7.711110
 C   -9.209969   11.940109   -8.353257
 C  -10.556126   11.732656   -8.665895
 C  -11.164391   10.527987   -8.299231
 C  -11.362186   12.767486   -9.338687
 C  -10.970970   13.576346  -10.341865
 C   -9.688226   13.543472  -11.068102
 C   -9.072063   12.345051  -11.456373
 C   -7.869426   12.348753  -12.150271
 C   -7.260437   13.558841  -12.473345
 C   -7.859068   14.760309  -12.108738
 C   -9.067529   14.743853  -11.419606
 O   -6.075081   13.503179  -13.149533
 O   -7.165821   11.089136   -7.402308
 O  -10.963125    8.345489   -7.285227
 H   -8.504988    8.961123   -6.855173
 H   -8.720542   12.864462   -8.628279
 H  -12.210441   10.358420   -8.526880
 H  -12.377674   12.878126   -8.971076
 H  -11.669054   14.343852  -10.666634
 H   -9.539464   11.403867  -11.201257
 H   -7.390634   11.426530  -12.449312
 H   -7.392535   15.705502  -12.361895
 H   -9.529170   15.682560  -11.141227
 H   -5.772786   14.397396  -13.321246
 H   -6.871497   11.947463   -7.715537
 H  -11.887498    8.335171   -7.542993
