29 
4q93_ligand_xtb.xyz
 C  -10.441941    9.533484   -7.650391
 C   -9.098128    9.723479   -7.360315
 C   -8.482587   10.915275   -7.720133
 C   -9.200553   11.906263   -8.374336
 C  -10.543956   11.712781   -8.682863
 C  -11.163748   10.526606   -8.299014
 C  -11.331729   12.748559   -9.348304
 C  -10.935603   13.571407  -10.323691
 C   -9.666158   13.550817  -11.045192
 C   -9.029468   12.358102  -11.394196
 C   -7.843701   12.365163  -12.095500
 C   -7.258900   13.572690  -12.470047
 C   -7.891838   14.766599  -12.146090
 C   -9.086563   14.750746  -11.452667
 O   -6.082725   13.536820  -13.153088
 O   -7.168511   11.073002   -7.408613
 O  -11.015271    8.357822   -7.276414
 H   -8.539137    8.955383   -6.854098
 H   -8.718118   12.836242   -8.640112
 H  -12.210982   10.372278   -8.524826
 H  -12.345484   12.847155   -8.978325
 H  -11.621112   14.346870  -10.645626
 H   -9.480123   11.416930  -11.119776
 H   -7.351965   11.445321  -12.369109
 H   -7.449455   15.708603  -12.444583
 H   -9.570624   15.685452  -11.207552
 H   -5.798032   14.434347  -13.363369
 H   -6.860539   11.928619   -7.730915
 H  -11.945351    8.353485   -7.532755
