29 
4q93_ligand_ani-2x.xyz
 C  -10.625727    9.523539   -7.396279
 C   -9.264178    9.595699   -7.115835
 C   -8.536906   10.674282   -7.595448
 C   -9.146863   11.677314   -8.351595
 C  -10.505978   11.589194   -8.647007
 C  -11.249167   10.513394   -8.151403
 C  -11.222795   12.610568   -9.437228
 C  -10.774244   13.538845  -10.299310
 C   -9.544669   13.593202  -11.109285
 C   -8.801606   12.458420  -11.455593
 C   -7.655899   12.556390  -12.230528
 C   -7.230438   13.804480  -12.682794
 C   -7.964052   14.947011  -12.365292
 C   -9.112309   14.830844  -11.594376
 O   -6.096546   13.843426  -13.434420
 O   -7.208947   10.714492   -7.305546
 O  -11.296950    8.449877   -6.895989
 H   -8.782654    8.821514   -6.528806
 H   -8.561386   12.512811   -8.725338
 H  -12.315140   10.447807   -8.365544
 H  -12.297169   12.615885   -9.253924
 H  -11.433962   14.393461  -10.454218
 H   -9.125064   11.485199  -11.093805
 H   -7.078584   11.676218  -12.491797
 H   -7.641289   15.923696  -12.724507
 H   -9.684199   15.724767  -11.354811
 H   -5.913426   14.758107  -13.683297
 H   -6.835921   11.503617   -7.718622
 H  -12.226233    8.516238   -7.149301
