52 
4qaa_ligand_xtb.xyz
 C   -7.251192  -14.695678   62.184391
 C   -6.061935  -14.021754   61.511017
 C   -6.310577  -13.783817   60.023293
 C   -5.122179  -13.100297   59.350498
 C   -5.283255  -12.948542   57.837571
 C   -6.387628  -11.970968   57.440553
 C   -6.437808  -11.758551   55.930513
 C   -7.549358  -10.782250   55.533182
 N   -7.607454  -10.556440   54.110948
 C   -6.873152   -9.592569   53.499557
 C   -6.800385   -9.528451   52.098182
 C   -6.071863   -8.486887   51.547929
 N   -5.480149   -7.570007   52.324095
 C   -5.615081   -7.713161   53.635457
 N   -5.062740   -6.748469   54.418397
 N   -6.265509   -8.689663   54.267368
 C   -5.909369   -8.309605   50.099914
 C   -6.033482   -9.366546   49.198389
 C   -5.877353   -9.159161   47.846338
 C   -5.594718   -7.885318   47.349683
 O   -5.467423   -7.791151   45.996058
 C   -5.172508   -6.535871   45.435004
 C   -5.460394   -6.826728   48.242108
 C   -5.612892   -7.046505   49.597709
 H   -8.142057  -14.077883   62.092865
 H   -7.455173  -15.659394   61.722491
 H   -7.053068  -14.857183   63.241472
 H   -5.174026  -14.646455   61.633769
 H   -5.862373  -13.065264   61.999730
 H   -7.204511  -13.168299   59.909408
 H   -6.500072  -14.741889   59.533051
 H   -4.223498  -13.690585   59.547210
 H   -4.971847  -12.114697   59.797276
 H   -5.490350  -13.927108   57.397712
 H   -4.337712  -12.593795   57.419983
 H   -6.213672  -11.011129   57.931425
 H   -7.354538  -12.348454   57.777674
 H   -6.601435  -12.718263   55.432203
 H   -5.483946  -11.357629   55.581762
 H   -7.369025   -9.811216   55.996555
 H   -8.520208  -11.165325   55.862474
 H   -7.901060  -11.330901   53.536131
 H   -7.312432  -10.257354   51.492324
 H   -4.390041   -6.143033   53.982472
 H   -4.961426   -6.956760   55.395833
 H   -6.232759  -10.365484   49.555760
 H   -5.966261   -9.972828   47.143387
 H   -5.958667   -5.804362   45.649046
 H   -4.211527   -6.151093   45.791853
 H   -5.117073   -6.699024   44.359691
 H   -5.237540   -5.830224   47.893578
 H   -5.506199   -6.231678   50.296410
