25 
4qag_ligand_aiqm1.xyz
 C    5.832325   29.325731    3.911934
 C    6.931403   28.459113    3.954454
 C    8.237373   28.941333    4.031256
 C    8.432289   30.315788    4.068586
 C    7.352628   31.198913    4.034230
 C    6.057091   30.712031    3.957316
 O    9.265378   28.066442    4.067691
 O    9.738766   30.709195    4.141907
 O    6.805171   27.101869    3.928271
 C    5.574633   26.490599    3.863640
 C    4.406511   27.374385    3.824840
 C    4.513060   28.719470    3.834336
 O    5.524148   25.292069    3.844126
 C    3.283378   29.594465    3.795115
 C    3.007429   30.286341    5.124993
 O    2.809629   29.466912    6.175491
 O    2.952645   31.475781    5.256514
 H    7.528633   32.266115    4.074258
 H    5.232523   31.407898    3.945401
 H   10.078569   28.577858    4.132493
 H    9.782389   31.665905    4.195929
 H    3.453736   26.866389    3.751029
 H    2.410134   28.986783    3.547119
 H    3.383510   30.371124    3.041835
 H    2.941747   28.549090    5.914234
