43 
4qb3_ligand_xtb.xyz
 C   24.457011   50.840949   -3.888409
 C   23.083787   51.321725   -4.200073
 C   22.747309   50.834370   -5.612948
 C   24.137105   48.804948   -5.275154
 O   22.402168   49.223070   -1.828475
 C   23.481074   48.810421   -1.451283
 C   24.142713   47.561478   -1.978876
 N   24.175637   49.430657   -0.465750
 C   23.617639   50.543866    0.273949
 C   23.631098   51.849720   -0.525632
 C   25.045046   52.368543   -0.819118
 C   25.282060   52.629280   -2.312545
 N   25.384000   51.406922   -3.064368
 C   24.937816   49.659435   -4.403766
 O   24.385355   47.643307   -5.548791
 N   23.012372   49.420080   -5.739145
 C   26.243330   49.464532   -3.862414
 C   26.489734   50.583554   -3.031798
 C   27.692872   50.720405   -2.351472
 C   28.631764   49.719344   -2.500704
 C   28.390255   48.606560   -3.309199
 C   27.206180   48.468528   -3.999803
 H   22.988453   52.407337   -4.148743
 H   22.384391   50.866318   -3.489395
 H   23.349808   51.399305   -6.342841
 H   21.691985   51.011285   -5.829230
 H   23.871638   46.727939   -1.332020
 H   23.787477   47.345052   -2.981800
 H   25.224825   47.659094   -1.995288
 H   25.089159   49.090005   -0.219001
 H   24.173891   50.655159    1.206512
 H   22.576207   50.298580    0.506650
 H   23.061541   52.595575    0.029894
 H   23.101490   51.656405   -1.456622
 H   25.783074   51.639408   -0.481853
 H   25.226846   53.297165   -0.276209
 H   26.216979   53.186549   -2.440194
 H   24.467495   53.232942   -2.718013
 H   22.441256   48.879273   -6.369953
 H   27.900313   51.578650   -1.729036
 H   29.575589   49.798601   -1.981070
 H   29.152854   47.846298   -3.393149
 H   27.007204   47.616467   -4.629966
