20 
4qem_ligand_xtb.xyz
 C    5.206871  -21.257292   -6.532595
 O    5.748076  -21.881942   -5.659110
 O    5.721554  -21.252660   -7.784514
 C    3.980844  -20.464173   -6.348003
 C    3.395837  -20.407689   -5.142047
 C    2.199845  -19.690293   -4.766823
 C    1.754711  -19.764462   -3.440776
 C    0.622351  -19.102204   -3.026188
 C   -0.108448  -18.336764   -3.934000
 C    0.320420  -18.252500   -5.256445
 C    1.455932  -18.918875   -5.664266
 O   -1.216985  -17.699022   -3.491146
 H    5.199048  -20.716338   -8.394179
 H    3.586757  -19.943685   -7.210529
 H    3.879532  -20.969253   -4.351228
 H    2.314836  -20.355066   -2.731285
 H    0.279741  -19.159300   -2.005472
 H   -0.243971  -17.659422   -5.964502
 H    1.765965  -18.836770   -6.694253
 H   -1.631117  -17.206392   -4.210640
