29 
4qer_ligand_xtb.xyz
 C   -4.342264   18.477439    5.477217
 C   -4.200718   18.124292    6.812835
 C   -4.609064   19.012669    7.798052
 C   -5.152224   20.240091    7.448377
 C   -5.293766   20.606919    6.108646
 C   -4.882560   19.705684    5.126320
 C   -5.865664   21.905595    5.806030
 C   -5.976471   22.467763    4.593498
 C   -6.544724   23.766099    4.290019
 C   -6.511849   24.224869    2.968005
 C   -7.033150   25.448999    2.613897
 C   -7.613858   26.262834    3.582748
 C   -7.659121   25.822909    4.901550
 C   -7.133134   24.595641    5.247314
 O   -8.120104   27.464921    3.200719
 O   -4.459107   18.636785    9.096744
 O   -3.935617   17.580479    4.538759
 H   -3.780699   17.170192    7.080726
 H   -5.466832   20.925109    8.225245
 H   -4.988301   19.953352    4.080089
 H   -6.215318   22.448483    6.673942
 H   -5.606928   21.935985    3.726826
 H   -6.063954   23.603815    2.205438
 H   -7.003623   25.797471    1.593755
 H   -8.111928   26.450281    5.659032
 H   -7.187057   24.280586    6.277569
 H   -8.490475   27.923164    3.964811
 H   -4.778398   19.337973    9.677388
 H   -4.086690   17.940900    3.656650
