51 
4qmm_ligand_aiqm1.xyz
 O  125.078239    0.064079   77.468919
 C  125.404742    1.144989   77.005097
 N  125.182098    2.319246   77.691992
 C  125.117415    3.613903   77.089904
 C  126.413616    4.322104   76.800758
 C  125.548164    4.770760   77.944725
 N  126.035444    1.280115   75.800799
 C  126.437585    0.193143   75.033879
 C  126.197876   -1.153929   75.186923
 N  126.817794   -1.747983   74.131065
 N  127.437777   -0.910138   73.307142
 C  127.211965    0.293195   73.854333
 C  127.742472    1.497793   73.256768
 N  128.464619    1.440518   72.097196
 C  128.836814    2.733472   71.794126
 C  129.580096    3.288942   70.752579
 C  129.766370    4.661121   70.770412
 C  129.233301    5.470855   71.798247
 C  129.497686    6.955516   71.774198
 N  130.923172    7.272487   71.760445
 C  131.586511    6.787897   72.967199
 C  133.060329    7.151994   72.924251
 O  133.237558    8.554598   72.814560
 C  132.612801    9.030167   71.636982
 C  131.125919    8.712233   71.643492
 C  128.498587    4.900926   72.831142
 C  128.293453    3.517246   72.829133
 N  127.610709    2.717597   73.734178
 H  124.576238    2.164601   78.482727
 H  124.293500    3.787191   76.403278
 H  127.319367    3.780275   77.033631
 H  126.448555    4.939816   75.913744
 H  125.879972    4.522871   78.943248
 H  125.007519    5.700294   77.849302
 H  126.345762    2.183220   75.486624
 H  125.666642   -1.688906   75.949083
 H  126.848358   -2.730613   73.935572
 H  128.665980    0.590709   71.601216
 H  129.999204    2.676092   69.964300
 H  130.349432    5.136470   69.993136
 H  129.052887    7.388689   70.873260
 H  129.002007    7.426170   72.641599
 H  131.125705    7.216203   73.872339
 H  131.475230    5.702278   73.013206
 H  133.546683    6.654613   72.076277
 H  133.556986    6.850826   73.845898
 H  133.088814    8.579657   70.756476
 H  132.771905   10.107897   71.612467
 H  130.644236    9.254396   72.474659
 H  130.675199    9.058979   70.708476
 H  128.098709    5.515425   73.630041
