41 
4qmw_ligand_xtb.xyz
 C    2.947115  -41.315270   29.903504
 C    3.750718  -41.675751   28.652639
 C    4.002703  -40.322630   27.996747
 C    2.651901  -39.629605   28.141738
 C    2.165061  -40.033441   29.546338
 N    2.424279  -38.988021   30.502651
 N    3.667986  -38.590125   30.802126
 C    1.511866  -38.275695   31.189268
 N    0.181040  -38.393058   31.136810
 C   -0.438182  -37.530388   31.910233
 N    0.090970  -36.575448   32.663230
 C    1.416045  -36.444950   32.711647
 N    1.904474  -35.444883   33.478593
 C    2.223711  -37.348347   31.991352
 C    3.590959  -37.621204   31.693323
 C    4.790275  -36.997178   32.232642
 C    4.877101  -36.626336   33.569493
 C    6.060057  -36.029909   33.993144
 C    6.566239  -35.508868   35.215778
 C    7.827211  -35.063133   34.961618
 N    8.147566  -35.273334   33.647162
 C    7.091476  -35.862683   33.028636
 N    7.028239  -36.231368   31.756800
 C    5.893967  -36.786526   31.385108
 H    2.284259  -42.119526   30.217872
 H    3.628335  -41.087103   30.723548
 H    4.670320  -42.205108   28.895119
 H    3.154991  -42.304271   27.988236
 H    4.756557  -39.774707   28.562193
 H    4.322758  -40.405259   26.959347
 H    2.717996  -38.547391   28.040187
 H    1.953639  -40.005196   27.393126
 H    1.082502  -40.178902   29.572843
 H   -1.518892  -37.586877   31.921446
 H    1.234092  -34.786689   33.837794
 H    2.864007  -35.162180   33.380555
 H    4.070304  -36.828364   34.260181
 H    6.051240  -35.474622   36.155107
 H    8.532524  -34.604567   35.627895
 H    9.019901  -35.043340   33.202938
 H    5.831688  -37.092749   30.351029
