41 
4qmw_ligand_ani-2x.xyz
 C    3.006881  -41.338336   29.879447
 C    3.775070  -41.670135   28.588370
 C    3.959985  -40.302184   27.927028
 C    2.598537  -39.633997   28.148831
 C    2.166561  -40.070638   29.569726
 N    2.411134  -39.022834   30.562481
 N    3.670543  -38.609643   30.813917
 C    1.492699  -38.285442   31.242864
 N    0.157020  -38.426630   31.222269
 C   -0.450524  -37.530726   31.977966
 N    0.090156  -36.536849   32.704911
 C    1.416046  -36.407872   32.692875
 N    1.962070  -35.380360   33.411696
 C    2.212869  -37.339485   31.985834
 C    3.589694  -37.633940   31.702729
 C    4.802973  -37.017871   32.252099
 C    4.873966  -36.630510   33.586925
 C    6.056128  -36.041902   34.032686
 C    6.554000  -35.491568   35.263340
 C    7.821184  -35.055483   35.019635
 N    8.154814  -35.297084   33.705280
 C    7.093484  -35.898860   33.080505
 N    7.068240  -36.281089   31.803652
 C    5.926782  -36.843154   31.420280
 H    2.382343  -42.165760   30.230870
 H    3.716980  -41.088918   30.672986
 H    4.718695  -42.192038   28.782222
 H    3.170520  -42.320076   27.940688
 H    4.729108  -39.732317   28.463193
 H    4.243832  -40.358094   26.870813
 H    2.621230  -38.546123   28.039251
 H    1.871402  -40.023073   27.423571
 H    1.094140  -40.261511   29.616961
 H   -1.536805  -37.593605   32.015306
 H    1.286009  -34.690872   33.714431
 H    2.824211  -34.997073   33.047980
 H    4.023468  -36.792951   34.242262
 H    6.036707  -35.429376   36.211893
 H    8.530463  -34.582109   35.687652
 H    9.029549  -35.077837   33.258228
 H    5.876835  -37.176676   30.386345
