24 
4qna_ligand_ani-2x.xyz
 N   -0.561896    1.530830   16.793406
 C    0.564873    2.177319   17.134000
 N    0.763469    3.497216   17.080883
 C   -0.296293    4.168027   16.619787
 N   -1.458470    3.636955   16.205504
 C   -1.530628    2.313334   16.310030
 N    1.585107    1.419805   17.606006
 N   -0.188339    5.512122   16.526071
 C   -2.787934    1.625915   15.903654
 C   -3.616882    2.066997   14.856032
 C   -4.800568    1.379046   14.570116
 C   -5.158059    0.254217   15.299054
 C   -4.333257   -0.209882   16.316361
 C   -3.156831    0.471555   16.597597
 O   -3.248216    3.137658   14.115930
 H    1.525361    0.425164   17.458968
 H    2.494088    1.849644   17.668889
 H    0.605888    5.964138   16.949383
 H   -1.015437    6.045916   16.316418
 H   -5.442875    1.732326   13.763487
 H   -6.082865   -0.265178   15.063131
 H   -4.598455   -1.096903   16.884162
 H   -2.492906    0.113604   17.380304
 H   -3.924974    3.293675   13.444928
