28 
4qp1_ligand_aiqm1.xyz
 N   72.055349   35.530713   22.247468
 C   73.203011   36.170324   21.955263
 N   74.412558   35.665027   21.737865
 C   74.401455   34.328173   21.841361
 C   73.307799   33.524073   22.135739
 C   72.087440   34.193058   22.347570
 C   69.646378   34.112684   22.741280
 N   73.661461   32.184994   22.155654
 C   74.937794   32.194756   21.881142
 N   75.444981   33.457674   21.681312
 C   68.880294   33.960756   21.447078
 C   69.220637   34.739894   20.338388
 C   68.540899   34.585868   19.133140
 C   67.514620   33.650184   19.022111
 C   67.168784   32.871898   20.123737
 C   67.851126   33.027473   21.327756
 N   70.971966   33.511377   22.686413
 H   73.120496   37.247688   21.886869
 H   69.779233   35.164104   22.984331
 H   69.094714   33.635367   23.555001
 H   75.565404   31.323004   21.809281
 H   76.390490   33.711411   21.459896
 H   70.022358   35.462774   20.430247
 H   68.813364   35.194118   18.280203
 H   66.988068   33.529063   18.084693
 H   66.371881   32.143125   20.045597
 H   67.584424   32.420633   22.185985
 H   71.029015   32.509790   22.588621
