14 
4qp6_ligand_xtb.xyz
 N  -17.348131  -33.465990  -28.416712
 C  -17.358825  -34.813659  -28.275418
 C  -16.798764  -35.124921  -26.998601
 C  -17.123512  -37.291027  -27.451675
 C  -16.457337  -33.885878  -26.395204
 C  -16.805857  -32.914736  -27.285091
 N  -16.685309  -36.387571  -26.592808
 C  -17.669407  -36.969565  -28.698816
 N  -17.796675  -35.723548  -29.132715
 H  -17.683018  -32.961088  -29.220299
 H  -17.038580  -38.321771  -27.137225
 H  -16.013470  -33.750596  -25.430518
 H  -16.706513  -31.849814  -27.195270
 H  -18.016604  -37.739836  -29.372649
