14 
4qp6_ligand_dft.xyz
 N  -17.347977  -33.463250  -28.416568
 C  -17.357750  -34.823824  -28.271988
 C  -16.799544  -35.124346  -27.000699
 C  -17.124293  -37.296503  -27.452859
 C  -16.453124  -33.878055  -26.386703
 C  -16.802480  -32.904574  -27.278948
 N  -16.681326  -36.389992  -26.584312
 C  -17.672491  -36.971247  -28.705325
 N  -17.801253  -35.717992  -29.143561
 H  -17.685540  -32.967396  -29.225167
 H  -17.047537  -38.338998  -27.155074
 H  -16.005791  -33.732857  -25.414988
 H  -16.706317  -31.831496  -27.197287
 H  -18.016578  -37.759470  -29.369521
