14 
4qp6_ligand_ani-2x.xyz
 N  -17.347791  -33.462947  -28.416317
 C  -17.357930  -34.825814  -28.272168
 C  -16.802367  -35.129282  -27.006259
 C  -17.124541  -37.297652  -27.453215
 C  -16.454139  -33.876924  -26.389097
 C  -16.802206  -32.903950  -27.278216
 N  -16.682587  -36.392027  -26.586748
 C  -17.672228  -36.968352  -28.705011
 N  -17.802459  -35.716447  -29.146497
 H  -17.684978  -32.968817  -29.224239
 H  -17.045662  -38.339828  -27.150932
 H  -16.005649  -33.729868  -25.415461
 H  -16.703893  -31.828124  -27.191753
 H  -18.015570  -37.759968  -29.367086
