39 
4qp9_ligand_aiqm1.xyz
 C    1.400602   10.777818   15.820626
 C    1.199586   10.039556   14.662892
 C    2.497727    9.875896   14.137518
 C   -0.257819    8.876079   12.948735
 C   -2.298017    9.083635   13.832964
 C   -3.983468    9.591495   15.175034
 C   -2.667997   11.124449   18.351543
 C   -3.129441   11.713747   19.520749
 C   -4.901049   11.230065   17.520870
 C    4.889933   11.403240   19.025859
 C    4.129800   10.693200   17.913017
 C    3.442736   11.686005   16.983035
 N    2.726345   11.015924   15.910539
 N    3.417777   10.461826   14.904388
 C   -0.059226    9.556251   14.121429
 N   -1.598768    8.591575   12.774821
 C   -1.371880    9.700540   14.708316
 N   -1.774916   10.272169   15.841989
 C   -3.090350   10.226805   16.066550
 N   -3.604532    9.004503   14.039461
 C   -3.569268   10.862866   17.317114
 N   -4.404793   12.060700   19.729153
 C   -5.258494   11.817969   18.730032
 H    0.699556   11.142926   16.555110
 H    2.806026    9.360645   13.242558
 H    0.451747    8.562584   12.203194
 H   -5.039711    9.544916   15.406580
 H   -1.623629   10.870999   18.227416
 H   -2.442627   11.920282   20.333412
 H   -5.655769   11.089829   16.758662
 H    5.363765   10.687030   19.695293
 H    5.671541   12.045461   18.616973
 H    4.219686   12.026213   19.622159
 H    3.375971   10.026446   18.340895
 H    4.804883   10.075020   17.320386
 H    4.176699   12.348300   16.525186
 H    2.721101   12.294508   17.531025
 H   -1.999104    8.104478   11.996303
 H   -6.287624   12.111049   18.902213
