43 
4qpa_ligand_aiqm1.xyz
 C    2.913624  -50.850614  -56.307285
 C    3.444313  -49.673142  -55.780356
 C    4.393838  -49.720142  -54.763767
 C    1.856899  -50.781926  -57.386772
 C    2.435479  -53.437228  -59.781655
 N    1.033387  -52.942413  -58.066249
 C    3.070561  -54.147459  -60.878620
 C    4.453635  -54.708650  -62.636080
 C    5.838676  -52.471145  -62.597752
 C    6.085055  -53.506910  -63.527036
 C    6.169551  -50.094274  -61.926733
 C    7.875479  -51.115331  -63.243303
 C    4.827312  -50.947822  -54.269629
 C    4.306564  -52.126065  -54.798782
 C    3.353985  -52.080776  -55.813612
 N    1.887032  -51.929615  -58.275747
 C    2.752163  -52.184087  -59.282145
 C    1.353399  -53.858216  -58.980129
 C    2.758588  -55.394059  -61.354490
 N    3.586163  -55.731654  -62.407734
 C    4.168788  -53.687616  -61.698043
 N    4.867017  -52.553163  -61.685668
 N    5.395500  -54.647170  -63.566054
 C    6.641160  -51.224165  -62.599008
 C    6.927244  -48.931039  -61.939470
 N    8.105852  -48.814075  -62.561865
 C    8.555450  -49.902712  -63.193152
 H    3.116004  -48.713402  -56.163596
 H    4.796205  -48.799257  -54.361975
 H    1.982246  -49.876208  -57.981405
 H    0.859930  -50.770879  -56.947135
 H    6.859219  -53.393417  -64.274626
 H    5.226598  -50.140383  -61.398759
 H    8.326874  -51.950622  -63.761535
 H    5.567430  -50.985427  -53.481566
 H    4.643341  -53.083217  -54.421614
 H    2.950266  -52.992203  -56.234196
 H    3.521095  -51.484938  -59.567500
 H    0.797416  -54.780510  -59.018490
 H    2.003479  -56.088379  -61.029724
 H    3.558359  -56.589436  -62.924544
 H    6.573340  -48.046451  -61.422832
 H    9.515481  -49.803803  -63.686366
