43 
4qpa_ligand_dft.xyz
 C    2.947518  -50.880813  -56.332060
 C    3.843148  -49.839462  -56.101322
 C    4.802170  -49.942030  -55.095690
 C    1.893998  -50.767352  -57.413630
 C    2.427988  -53.448246  -59.776820
 N    0.970887  -52.889926  -58.124445
 C    3.096245  -54.173709  -60.845596
 C    4.532921  -54.727021  -62.565045
 C    5.827290  -52.429016  -62.547991
 C    6.132326  -53.471537  -63.449783
 C    5.959552  -49.965584  -62.156177
 C    7.900705  -51.060564  -63.002635
 C    4.873479  -51.092917  -54.318697
 C    3.982424  -52.140215  -54.548996
 C    3.023454  -52.034923  -55.548854
 N    1.877913  -51.912787  -58.304348
 C    2.773313  -52.207617  -59.272068
 C    1.294868  -53.817421  -59.015081
 C    2.842788  -55.442738  -61.298902
 N    3.698519  -55.780902  -62.330271
 C    4.186899  -53.696903  -61.653916
 N    4.841082  -52.536427  -61.651561
 N    5.491338  -54.638947  -63.474054
 C    6.574521  -51.147253  -62.574981
 C    6.680285  -48.779271  -62.195628
 N    7.946583  -48.686385  -62.611505
 C    8.530450  -49.820203  -63.001892
 H    3.795239  -48.940867  -56.712184
 H    5.496803  -49.124665  -54.926430
 H    2.053051  -49.864472  -58.011451
 H    0.891176  -50.714148  -56.982552
 H    6.910896  -53.338996  -64.195312
 H    4.931944  -49.982359  -61.810587
 H    8.455004  -51.942012  -63.308900
 H    5.622849  -51.177260  -53.537319
 H    4.035970  -53.041975  -53.946192
 H    2.330117  -52.850713  -55.736343
 H    3.582814  -51.543300  -59.535784
 H    0.696919  -54.716271  -59.088566
 H    2.103448  -56.152868  -60.957122
 H    3.715318  -56.654784  -62.829774
 H    6.214846  -47.848483  -61.878133
 H    9.564941  -49.736662  -63.328401
