52 
4qt0_ligand_aiqm1.xyz
 O  -59.478335   26.214563  -47.397844
 C  -60.553941   25.962796  -46.929576
 O  -61.233567   26.913026  -46.244536
 C  -61.223603   24.629819  -47.076554
 C  -60.813344   23.811644  -48.127969
 C  -61.408956   22.570239  -48.298430
 C  -62.401009   22.127715  -47.424926
 C  -62.213220   24.196774  -46.196833
 C  -62.816453   22.944041  -46.363769
 N  -63.793140   22.568247  -45.425014
 C  -64.613105   21.457293  -45.477452
 C  -64.719936   20.612774  -44.371364
 C  -63.983226   20.891055  -43.108620
 N  -63.801081   19.843573  -42.260426
 O  -63.572814   22.009638  -42.810496
 C  -65.433439   21.171122  -46.615089
 C  -66.242960   20.010136  -46.580020
 N  -66.320407   19.178255  -45.495165
 C  -65.604775   19.509344  -44.448693
 C  -65.532892   22.030514  -47.744499
 C  -66.349063   21.717278  -48.800101
 C  -67.116435   20.520030  -48.798269
 C  -67.053443   19.694337  -47.694735
 C  -67.955598   20.147926  -49.964502
 C  -67.958618   18.856488  -50.471638
 N  -68.682829   18.451283  -51.519467
 C  -69.440206   19.394106  -52.070606
 O  -70.158628   18.982738  -53.114568
 C  -70.989632   19.952939  -53.746213
 N  -69.544001   20.670287  -51.687949
 C  -68.806609   21.036154  -50.649276
 O  -68.883153   22.299940  -50.221102
 C  -69.795865   23.159699  -50.910766
 H  -62.113033   26.591942  -46.028024
 H  -60.030474   24.162513  -48.783577
 H  -61.093092   21.928814  -49.110592
 H  -62.856919   21.158195  -47.571355
 H  -62.500963   24.792903  -45.336445
 H  -63.553418   22.808817  -44.468977
 H  -63.212391   20.028190  -41.467492
 H  -63.855579   18.897664  -42.587223
 H  -65.729823   18.877295  -43.574869
 H  -64.969627   22.952862  -47.753632
 H  -66.430789   22.393590  -49.640786
 H  -67.644516   18.791133  -47.623363
 H  -67.331902   18.101550  -50.010331
 H  -71.726682   20.342679  -53.045778
 H  -70.391952   20.775361  -54.136846
 H  -71.481634   19.426891  -54.556690
 H  -69.515096   23.256817  -51.958613
 H  -70.811612   22.773993  -50.844013
 H  -69.718915   24.115718  -50.405426
