35 
4qxo_ligand_xtb.xyz
 O  -16.846138   52.150392   -3.632856
 C  -17.995480   52.179885   -3.228547
 C  -19.163429   52.072793   -4.112034
 C  -18.988729   51.884866   -5.484765
 C  -20.076726   51.785565   -6.316069
 C  -21.375282   51.853333   -5.808107
 C  -22.544190   51.735487   -6.736093
 C  -21.577697   52.026515   -4.442046
 C  -22.958290   52.080606   -3.860104
 C  -20.462851   52.152412   -3.601073
 O  -20.710176   52.366868   -2.280956
 C  -19.677141   52.416036   -1.410463
 C  -18.340295   52.329879   -1.805130
 C  -17.335535   52.392752   -0.836734
 C  -17.654774   52.538457    0.492668
 C  -18.988707   52.628816    0.877635
 C  -20.004652   52.578066   -0.055001
 C  -21.455141   52.659937    0.325248
 C  -22.183137   51.356433    0.010346
 O  -23.526716   51.443710    0.084640
 O  -21.651305   50.326230   -0.268579
 H  -17.978593   51.825336   -5.859538
 H  -19.932580   51.648504   -7.377470
 H  -22.211113   51.703996   -7.769864
 H  -23.105269   50.824561   -6.528528
 H  -23.221549   52.578700   -6.611713
 H  -23.415940   53.052056   -4.050199
 H  -23.591291   51.316884   -4.305368
 H  -22.922259   51.915274   -2.787756
 H  -16.312409   52.320522   -1.172660
 H  -16.877695   52.581292    1.239908
 H  -19.236491   52.740931    1.923215
 H  -21.938711   53.471736   -0.228210
 H  -21.555324   52.855536    1.396126
 H  -23.836186   52.324935    0.331478
