35 
4qxo_ligand_aiqm1.xyz
 O  -16.846419   52.124496   -3.637591
 C  -17.998236   52.180629   -3.235333
 C  -19.160837   52.080502   -4.129155
 C  -18.990542   51.882770   -5.504622
 C  -20.091844   51.771927   -6.328217
 C  -21.397821   51.847736   -5.810351
 C  -22.567980   51.709482   -6.751434
 C  -21.593253   52.045341   -4.438228
 C  -22.950828   52.125821   -3.801831
 C  -20.457328   52.162542   -3.624374
 O  -20.704123   52.368360   -2.294915
 C  -19.667648   52.435132   -1.414434
 C  -18.334282   52.351676   -1.810544
 C  -17.325750   52.419374   -0.839005
 C  -17.653814   52.568168    0.495777
 C  -19.001193   52.654754    0.872110
 C  -20.021344   52.599534   -0.068680
 C  -21.471886   52.659700    0.324454
 C  -22.152882   51.304163    0.191626
 O  -23.469696   51.341342   -0.134796
 O  -21.604756   50.260352    0.388899
 H  -17.979953   51.818823   -5.883243
 H  -19.957273   51.618214   -7.391154
 H  -22.215468   51.573233   -7.773211
 H  -23.189689   50.851650   -6.491450
 H  -23.205978   52.594629   -6.729463
 H  -23.069151   53.076168   -3.271430
 H  -23.746133   52.044917   -4.536381
 H  -23.086198   51.336375   -3.057939
 H  -16.301043   52.344513   -1.175334
 H  -16.881435   52.610449    1.250553
 H  -19.266490   52.758028    1.918862
 H  -22.002326   53.412846   -0.263689
 H  -21.555576   52.937144    1.377327
 H  -23.732624   52.248511   -0.311406
