35 
4qxq_ligand_aiqm1.xyz
 O  162.937815   48.997849    5.654412
 C  163.893575   49.611719    5.206637
 C  165.021287   50.057400    6.034109
 C  165.056501   49.778087    7.405958
 C  166.129572   50.194206    8.166482
 C  167.201921   50.898833    7.588725
 C  168.353536   51.326730    8.462829
 C  167.189385   51.191300    6.219374
 C  168.290402   51.937076    5.522549
 C  166.086069   50.758741    5.471322
 O  166.122174   51.073011    4.138960
 C  165.115005   50.675726    3.320598
 C  164.007971   49.960396    3.776455
 C  163.018778   49.570689    2.863856
 C  163.140142   49.892736    1.525090
 C  164.261080   50.613971    1.086728
 C  165.259032   51.016921    1.967635
 C  166.489037   51.746339    1.497911
 C  167.762396   50.905567    1.517296
 O  167.606426   49.591805    1.240785
 O  168.849558   51.365218    1.720479
 H  164.225650   49.232992    7.831685
 H  166.155428   49.976343    9.226379
 H  168.184922   51.009847    9.491577
 H  169.294028   50.890790    8.123767
 H  168.475953   52.410910    8.458664
 H  167.892393   52.825457    5.025946
 H  169.066144   52.250241    6.214773
 H  168.751008   51.329898    4.740249
 H  162.175275   49.015042    3.248009
 H  162.383731   49.593695    0.814285
 H  164.356892   50.871711    0.036733
 H  166.690407   52.624424    2.109303
 H  166.355324   52.076535    0.464192
 H  166.664282   49.395396    1.162649
