35 
4qxr_ligand_aiqm1.xyz
 O  113.473031  -37.889528  -10.601779
 C  113.412587  -39.038514  -10.191515
 C  113.583562  -40.206784  -11.066494
 C  113.854223  -40.035599  -12.429257
 C  114.025426  -41.134991  -13.244611
 C  113.941390  -42.437431  -12.723468
 C  114.139475  -43.619717  -13.634129
 C  113.678677  -42.635510  -11.361795
 C  113.592767  -44.014336  -10.771217
 C  113.493301  -41.502088  -10.556034
 O  113.208972  -41.737652   -9.237641
 C  113.075315  -40.694451   -8.373138
 C  113.161973  -39.363430   -8.776756
 C  113.018732  -38.344738   -7.824305
 C  112.791397  -38.659054   -6.497600
 C  112.702277  -40.003396   -6.112639
 C  112.831910  -41.033839   -7.034474
 C  112.773279  -42.475069   -6.617994
 C  114.145038  -43.132677   -6.620058
 O  114.128944  -44.489905   -6.573569
 O  115.182815  -42.541058   -6.637624
 H  113.922107  -39.023830  -12.804252
 H  114.229866  -41.001252  -14.299167
 H  114.251407  -43.290994  -14.666959
 H  115.033776  -44.182880  -13.359207
 H  113.296118  -44.309831  -13.580964
 H  112.600189  -44.451751  -10.921309
 H  114.311978  -44.682464  -11.241776
 H  113.797591  -43.995488   -9.702077
 H  113.098802  -37.323159   -8.169011
 H  112.689789  -37.879128   -5.756326
 H  112.536795  -40.260586   -5.071733
 H  112.102039  -43.041208   -7.268848
 H  112.390456  -42.554528   -5.597189
 H  113.221295  -44.805536   -6.573885
