34 
4qye_ligand_ani-2x.xyz
 O    9.754819    5.853440   14.941960
 C    9.829282    6.783892   15.701176
 O   11.018422    7.392251   15.911348
 C    8.651125    7.326772   16.452158
 C    7.559915    6.478967   16.642723
 C    6.438068    6.922306   17.322102
 C    6.383724    8.228808   17.815884
 C    7.460664    9.090926   17.588421
 C    8.585948    8.643886   16.912622
 C    5.178380    8.674061   18.562321
 N    4.048014    7.999049   18.340291
 C    2.955982    8.377257   19.007340
 C    2.999351    9.459039   19.893095
 N    4.122386   10.132192   20.132309
 C    5.208451    9.734732   19.474481
 C    1.708721    7.608907   18.739746
 C    0.696267    7.531881   19.692184
 C   -0.465189    6.814691   19.415504
 O   -1.419415    6.774499   20.386149
 C   -0.619869    6.176303   18.185510
 C    0.399867    6.251501   17.242532
 C    1.564689    6.955406   17.513467
 H   10.953793    8.014195   16.648727
 H    7.610282    5.470943   16.242187
 H    5.586686    6.266876   17.476047
 H    7.426562   10.123309   17.926564
 H    9.394495    9.348232   16.720917
 H    2.106952    9.806384   20.407966
 H    6.131542   10.266442   19.693244
 H    0.790705    7.999773   20.668558
 H   -2.168048    6.253694   20.070247
 H   -1.530096    5.620297   17.967597
 H    0.282533    5.748402   16.286475
 H    2.372391    7.009688   16.790648
