34 
4qye_ligand_aiqm1.xyz
 O    9.726629    5.950615   14.825842
 C    9.813094    6.830968   15.636198
 O   11.017328    7.394120   15.898569
 C    8.643877    7.356434   16.410657
 C    7.511299    6.543857   16.507765
 C    6.398304    6.974536   17.210559
 C    6.388709    8.232832   17.827650
 C    7.511751    9.058469   17.702862
 C    8.631714    8.620701   17.002443
 C    5.186463    8.668432   18.579499
 N    4.058401    7.987831   18.360267
 C    2.956164    8.362832   19.013350
 C    2.990327    9.460615   19.886004
 N    4.111745   10.136314   20.131067
 C    5.207862    9.733268   19.487577
 C    1.721538    7.582666   18.756701
 C    0.649058    7.625387   19.648897
 C   -0.505585    6.896191   19.379984
 O   -1.519886    6.981554   20.291914
 C   -0.600611    6.120757   18.227329
 C    0.477609    6.071094   17.347546
 C    1.635168    6.791521   17.605015
 H   10.938318    7.995315   16.644588
 H    7.527175    5.580915   16.015541
 H    5.515193    6.354328   17.284305
 H    7.516099   10.055859   18.121606
 H    9.471032    9.298508   16.887468
 H    2.097369    9.807955   20.389704
 H    6.121180   10.269214   19.712840
 H    0.685984    8.193649   20.568692
 H   -2.248824    6.432916   19.996315
 H   -1.503661    5.556811   18.022727
 H    0.406260    5.461147   16.457546
 H    2.480316    6.751386   16.933474
