50 
4qyg_ligand_ani-2x.xyz
 O    7.942382    5.322014   14.647053
 C    8.614221    5.796273   15.721751
 O    9.720989    5.417915   15.977064
 C    7.830044    6.787305   16.551362
 N    8.535434    7.818483   17.058455
 C    7.913440    8.715379   17.802634
 C    6.545145    8.614732   18.111142
 N    5.809826    9.466387   18.866820
 C    4.586686    8.931098   18.865410
 C    6.477216    6.574300   16.789346
 C    5.814157    7.494684   17.594728
 C    4.484557    7.702679   18.102265
 C    3.259120    7.068302   18.025034
 C    2.175244    7.626011   18.701493
 C    2.392538    8.828540   19.425193
 N    3.531792    9.477145   19.512492
 C    0.838785    7.009935   18.663778
 C    0.329148    6.482755   17.474411
 C   -0.926356    5.903978   17.426572
 C   -1.729329    5.834501   18.573687
 C   -1.218929    6.358662   19.770174
 C    0.040390    6.937516   19.806308
 N   -3.017867    5.279431   18.466010
 C   -3.941105    5.497666   19.571017
 C   -5.367257    5.184764   19.143470
 N   -5.455693    3.763251   18.659974
 C   -6.827840    3.367069   18.321580
 C   -4.497718    3.571626   17.514990
 C   -3.088091    3.903983   17.974648
 H    7.124552    5.823625   14.520350
 H    8.496093    9.546536   18.187351
 H    5.979194    5.692446   16.401889
 H    3.141481    6.137681   17.477824
 H    1.553188    9.290535   19.942067
 H    0.927491    6.539858   16.568063
 H   -1.310803    5.513461   16.488289
 H   -1.804430    6.311853   20.682446
 H    0.420795    7.328154   20.747381
 H   -3.886160    6.541980   19.888714
 H   -3.695956    4.857414   20.441436
 H   -5.668805    5.839548   18.321238
 H   -6.063422    5.322391   19.974551
 H   -5.125596    3.158135   19.436159
 H   -7.481652    3.497802   19.187285
 H   -7.202473    3.993110   17.503695
 H   -6.849436    2.323428   17.998602
 H   -4.804671    4.238785   16.704613
 H   -4.565727    2.538479   17.164430
 H   -2.801630    3.186250   18.766478
 H   -2.388960    3.768547   17.148078
