50 
4qyg_ligand_xtb.xyz
 O    7.619110    5.447347   14.423487
 C    8.402134    5.957422   15.425197
 O    9.567527    5.668860   15.459633
 C    7.695809    6.827433   16.388929
 N    8.462738    7.743100   17.007202
 C    7.931931    8.565771   17.877398
 C    6.573974    8.526527   18.216295
 N    5.881469    9.290510   19.088980
 C    4.629112    8.831197   19.050256
 C    6.331426    6.676501   16.648295
 C    5.761295    7.525256   17.577421
 C    4.462657    7.715176   18.129936
 C    3.236045    7.113704   18.011067
 C    2.180976    7.609419   18.789659
 C    2.451838    8.712096   19.629745
 N    3.604469    9.311892   19.768163
 C    0.860004    7.017324   18.735787
 C    0.367828    6.442300   17.555149
 C   -0.883232    5.871754   17.503966
 C   -1.692626    5.848609   18.635041
 C   -1.226805    6.414339   19.814689
 C    0.024335    6.992450   19.859094
 N   -2.982015    5.236106   18.519117
 C   -4.014799    5.662926   19.423683
 C   -5.363497    5.286607   18.806627
 N   -5.422482    3.814272   18.614803
 C   -6.728381    3.371100   18.107363
 C   -4.301727    3.374306   17.743769
 C   -2.978035    3.800817   18.377561
 H    6.725446    5.809965   14.476580
 H    8.601895    9.286350   18.327674
 H    5.738435    5.893208   16.185681
 H    3.094273    6.245535   17.376266
 H    1.640397    9.152277   20.200973
 H    0.972738    6.466932   16.661766
 H   -1.250077    5.446168   16.579721
 H   -1.833810    6.400476   20.709714
 H    0.377179    7.410207   20.789196
 H   -3.959081    6.745937   19.537683
 H   -3.939067    5.202867   20.428393
 H   -5.462260    5.761661   17.829572
 H   -6.188645    5.597759   19.449158
 H   -5.261333    3.390373   19.537668
 H   -7.522562    3.678785   18.785439
 H   -6.908773    3.816010   17.130197
 H   -6.748162    2.287059   18.008930
 H   -4.415703    3.859461   16.773296
 H   -4.347322    2.291363   17.618682
 H   -2.849003    3.278275   19.345926
 H   -2.151644    3.510610   17.728971
