48 
4qyh_ligand_aiqm1.xyz
 N    9.225819    5.924773   14.826717
 C    8.703730    6.664467   15.553951
 C    7.971499    7.527796   16.452972
 N    8.646846    8.604167   16.926221
 C    8.003484    9.418756   17.753246
 C    6.669748    9.202300   18.144119
 N    5.913277    9.970984   18.983253
 C    4.726217    9.338632   19.021571
 C    6.657864    7.205282   16.762802
 C    5.986910    8.063783   17.631762
 C    4.682463    8.145152   18.211659
 C    3.517570    7.400683   18.167064
 C    2.424439    7.839867   18.923837
 C    2.578671    9.026945   19.680007
 N    3.666114    9.775537   19.747421
 C    1.156280    7.106878   18.935764
 C    0.717096    6.398399   17.806343
 C   -0.492047    5.707535   17.791886
 C   -1.302697    5.702168   18.930965
 C   -0.875494    6.385405   20.071746
 C    0.328488    7.076404   20.071547
 N   -2.570671    5.020156   18.983693
 C   -2.796724    4.029173   17.960433
 C   -3.973275    3.161963   18.379738
 N   -5.200636    4.031031   18.571027
 C   -6.383423    3.224625   18.990616
 C   -4.914772    5.151574   19.552585
 C   -3.697391    5.930273   19.083758
 H    8.551615   10.275434   18.125207
 H    6.198071    6.319185   16.334891
 H    3.452023    6.478989   17.587579
 H    1.721931    9.393287   20.247012
 H    1.329589    6.402850   16.915857
 H   -0.789480    5.178592   16.891833
 H   -1.492336    6.361280   20.966767
 H    0.644691    7.585341   20.970562
 H   -1.920920    3.399866   17.866775
 H   -3.011453    4.478359   16.977329
 H   -3.759130    2.684496   19.333733
 H   -4.215539    2.405915   17.636406
 H   -5.407600    4.465424   17.667535
 H   -6.582181    2.453375   18.254451
 H   -6.176078    2.758085   19.948625
 H   -7.250852    3.868349   19.087861
 H   -4.714329    4.692895   20.518282
 H   -5.806477    5.770618   19.615951
 H   -3.919577    6.425114   18.123767
 H   -3.465554    6.700439   19.808377
