26 
4re3_ligand_aiqm1.xyz
 C   -0.731188    1.194620    0.520998
 C   -1.831116    0.288717    0.081489
 N    0.578696    0.819668    0.473950
 C   -1.356571   -1.146026    0.228856
 C   -0.054180   -1.325203   -0.525522
 C    1.073957   -0.493252    0.074701
 C    2.236196   -0.384562   -0.896733
 C    0.377573    2.837594    1.302023
 C    1.301235    1.878051    0.978709
 N   -0.898615    2.399727    1.015507
 O   -2.279096   -2.060952   -0.338275
 O   -3.001347    0.454591    0.861220
 O    0.391693   -2.669212   -0.482568
 O    1.770241    0.284571   -2.062379
 H   -2.056065    0.478574   -0.976811
 H   -1.203635   -1.366177    1.292661
 H   -0.220494   -1.007269   -1.561002
 H    1.446071   -1.020613    0.955430
 H    2.570510   -1.399061   -1.124447
 H    3.061533    0.167478   -0.438100
 H    0.559137    3.812084    1.719947
 H    2.375285    1.862937    1.055044
 H   -3.133842   -1.895271    0.065697
 H   -3.014168    1.366310    1.167918
 H   -0.360606   -3.221858   -0.710946
 H    2.398698    0.145234   -2.770370
