64 
4res_ligand_dft.xyz
 C    1.581285    1.304821    1.485033
 C    1.118605    0.848516    0.099557
 C    0.128582    1.883614   -0.478879
 C   -1.230082    1.896577    0.216925
 C   -1.912925    0.527543    0.134586
 C   -3.334531    0.488213    0.778786
 C   -3.287112    0.877232    2.268342
 C   -4.303500    1.485180    0.100037
 C   -4.655990    1.148205   -1.347882
 C   -5.250128   -0.252017   -1.452281
 O   -6.505558   -0.214188   -0.785328
 C   -4.305729   -1.277408   -0.823834
 C   -3.933071   -0.940677    0.630908
 C   -3.002443   -2.007881    1.220823
 C   -1.609168   -1.960694    0.595834
 C   -0.981249   -0.565611    0.704103
 C    0.439872   -0.550101    0.097787
 O    1.250060   -1.490548    0.810573
 C    0.526480   -0.996665   -1.367934
 C    1.815173   -0.369472   -1.938741
 C    2.295714    0.705692   -0.923802
 C    3.667048    0.432300   -0.347625
 C    4.617041    1.366765   -0.312907
 C    5.961473    1.044946    0.276299
 C    6.386517   -0.380396   -0.036804
 O    7.529950   -0.710305   -0.217352
 O    5.400711   -1.290784   -0.117643
 C    4.054955   -0.916965    0.210703
 H    0.744310    1.402507    2.184887
 H    2.071752    2.281601    1.416661
 H    2.310265    0.616726    1.922915
 H   -0.027190    1.683941   -1.547991
 H    0.591069    2.877265   -0.420650
 H   -1.854570    2.663497   -0.252515
 H   -1.109696    2.195370    1.265181
 H   -2.042069    0.308749   -0.935006
 H   -2.544643    0.316608    2.843453
 H   -4.263942    0.697710    2.731412
 H   -3.063290    1.942485    2.389948
 H   -3.904488    2.503622    0.162090
 H   -5.234999    1.488184    0.678203
 H   -3.771701    1.205122   -1.995284
 H   -5.381957    1.872015   -1.733265
 H   -5.403541   -0.504093   -2.513678
 H   -6.862439   -1.110277   -0.778920
 H   -4.772037   -2.273332   -0.850991
 H   -3.413427   -1.349475   -1.457536
 H   -4.872772   -0.948028    1.199311
 H   -3.443424   -3.002170    1.074944
 H   -2.919883   -1.865836    2.305661
 H   -0.950355   -2.695232    1.068406
 H   -1.672316   -2.245112   -0.462033
 H   -0.845481   -0.347410    1.776692
 H    1.200559   -1.270412    1.749547
 H    0.534347   -2.087840   -1.421151
 H   -0.352361   -0.651737   -1.921094
 H    1.632555    0.084017   -2.916881
 H    2.586480   -1.128232   -2.097084
 H    2.391986    1.672126   -1.432430
 H    4.448840    2.363237   -0.714398
 H    6.751923    1.706155   -0.082275
 H    5.936004    1.148329    1.372578
 H    3.433238   -1.723949   -0.169377
 H    3.951036   -0.929821    1.304460
