64 
4res_ligand_xtb.xyz
 C    2.132193   -0.718489   -1.756690
 C    1.573421   -0.717754   -0.335252
 C    0.587059   -1.882870   -0.157671
 C   -0.747274   -1.669825   -0.860397
 C   -1.448244   -0.433482   -0.297031
 C   -2.869728   -0.216469   -0.875748
 C   -2.849398   -0.167554   -2.411500
 C   -3.830483   -1.362129   -0.500561
 C   -4.167633   -1.452087    0.982610
 C   -4.780602   -0.139515    1.463299
 O   -6.029719    0.018472    0.820305
 C   -3.821824    1.013386    1.160915
 C   -3.473690    1.096701   -0.329919
 C   -2.554814    2.289522   -0.600323
 C   -1.169896    2.071851   -0.005411
 C   -0.538296    0.779686   -0.529070
 C    0.885344    0.618688    0.057353
 O    1.652959    1.734059   -0.377903
 C    0.953858    0.636467    1.594095
 C    2.110056   -0.284403    2.014475
 C    2.690474   -0.905093    0.729886
 C    4.033696   -0.340629    0.366596
 C    5.075660   -1.100859    0.040959
 C    6.383806   -0.431849   -0.233557
 C    6.616097    0.625928    0.839378
 O    7.666661    0.787449    1.397385
 O    5.554029    1.371354    1.139346
 C    4.336255    1.130349    0.432517
 H    1.336470   -0.601254   -2.488821
 H    2.637338   -1.662013   -1.950465
 H    2.855538    0.080922   -1.894558
 H    0.394478   -2.029288    0.906041
 H    1.055631   -2.794516   -0.536241
 H   -1.360110   -2.558020   -0.705655
 H   -0.588228   -1.557577   -1.932375
 H   -1.552919   -0.578992    0.781249
 H   -2.100827    0.517999   -2.795656
 H   -3.819860    0.154315   -2.783191
 H   -2.650611   -1.155204   -2.819862
 H   -3.429311   -2.317343   -0.839955
 H   -4.768133   -1.193760   -1.033203
 H   -3.283011   -1.674277    1.580234
 H   -4.891351   -2.253653    1.135989
 H   -4.941756   -0.191284    2.555335
 H   -6.383731    0.885341    1.044446
 H   -4.280784    1.959015    1.466981
 H   -2.927394    0.874112    1.766166
 H   -4.417388    1.261749   -0.863190
 H   -2.995391    3.193157   -0.172172
 H   -2.471179    2.448356   -1.676526
 H   -0.523018    2.915680   -0.253184
 H   -1.241893    2.031242    1.080809
 H   -0.402177    0.891493   -1.612839
 H    1.563155    1.810740   -1.333789
 H    1.117846    1.661343    1.921819
 H    0.015333    0.288076    2.020290
 H    1.746833   -1.072422    2.674131
 H    2.877758    0.260175    2.561121
 H    2.846751   -1.979341    0.866986
 H    5.029317   -2.177688    0.009339
 H    7.222339   -1.125294   -0.243440
 H    6.351690    0.094035   -1.195479
 H    3.570986    1.701742    0.952227
 H    4.438041    1.541829   -0.581749
