81 
4rfy_ligand_aiqm1.xyz
 C   21.608298    5.288748    0.968348
 C   22.932086    5.672119    0.463036
 C   23.921617    6.087116    1.303093
 C   23.668417    6.179619    2.714760
 C   22.438748    5.819282    3.169253
 N   21.439932    5.391555    2.323252
 C   20.153402    5.020318    2.902329
 O   20.715921    4.904047    0.210435
 N   22.991145    5.528404   -0.919817
 C   23.969765    5.832358   -1.818060
 C   23.721388    5.560590   -3.183187
 C   24.691142    5.876818   -4.105938
 C   25.891955    6.463275   -3.671237
 C   26.044888    6.650747   -2.303070
 N   25.116948    6.366732   -1.384683
 C   27.035698    6.785694   -4.567283
 O   28.187289    6.624051   -4.196924
 N   26.735843    7.207093   -5.849840
 C   27.888475    7.477819   -6.706949
 C   27.438251    7.457928   -8.157526
 O   26.389955    8.385751   -8.383439
 C   25.272147    8.085273   -7.572135
 C   25.645134    8.148661   -6.100564
 C   24.736555    6.615733    3.650851
 C   25.956827    5.930396    3.632572
 C   26.963608    6.245150    4.537797
 C   26.773581    7.268369    5.455875
 C   25.575632    7.983062    5.457602
 C   24.545994    7.675500    4.556327
 C   23.261700    8.453735    4.573371
 N   25.403330    9.048556    6.401265
 C   25.640720   10.412591    5.939163
 C   24.771520   11.388548    6.713375
 C   25.459007    8.757479    7.751323
 C   25.342287    9.924144    8.659221
 C   25.019232   11.201594    8.185997
 C   24.915548   12.268418    9.072477
 C   25.130881   12.098409   10.456044
 C   25.434052   10.798430   10.915273
 C   25.536587    9.739930   10.025954
 N   25.097902   13.180630   11.321111
 C   24.451681   14.391686   10.855835
 C   24.992184   12.904636   12.740985
 O   25.576834    7.613207    8.161727
 O   22.438278    7.944505    5.626847
 H   24.894148    6.355625    0.916063
 H   22.173185    5.861533    4.215946
 H   20.283532    4.171680    3.570264
 H   19.747214    5.863581    3.457620
 H   19.491363    4.753535    2.085342
 H   22.129565    5.163909   -1.290855
 H   22.789393    5.101038   -3.484920
 H   24.536051    5.657262   -5.155304
 H   26.977707    7.059897   -1.934656
 H   28.635695    6.708506   -6.525574
 H   28.331940    8.447724   -6.457709
 H   27.103744    6.448887   -8.430474
 H   28.254366    7.750508   -8.816043
 H   24.884848    7.088266   -7.820167
 H   24.511691    8.829436   -7.804373
 H   25.966522    9.167353   -5.852078
 H   24.783182    7.906724   -5.483344
 H   26.099130    5.129184    2.918349
 H   27.889001    5.683104    4.531368
 H   27.523221    7.497596    6.202846
 H   22.742948    8.340983    3.615999
 H   23.447867    9.520568    4.716932
 H   25.437710   10.452075    4.869872
 H   26.701474   10.669679    6.077975
 H   23.713583   11.201664    6.493118
 H   24.988421   12.412994    6.407787
 H   24.665940   13.243422    8.676939
 H   25.585915   10.613258   11.967527
 H   25.766597    8.745094   10.383290
 H   24.987510   14.809162   10.002267
 H   23.407803   14.228878   10.557547
 H   24.480489   15.132180   11.653009
 H   24.094663   12.327786   12.997093
 H   25.864937   12.352260   13.089603
 H   24.969824   13.850238   13.279713
 H   21.728437    8.570608    5.784085
