81 
4rfy_ligand_xtb.xyz
 C   21.639688    5.266435    1.062690
 C   22.899466    5.707460    0.481443
 C   23.905046    6.207932    1.253503
 C   23.728864    6.307701    2.656925
 C   22.548349    5.882587    3.194255
 N   21.544277    5.387733    2.427766
 C   20.321351    4.962583    3.074131
 O   20.719987    4.817793    0.376799
 N   22.909427    5.547667   -0.889148
 C   23.884997    5.798619   -1.799128
 C   23.646209    5.497283   -3.155016
 C   24.631402    5.760827   -4.074689
 C   25.839572    6.323039   -3.646093
 C   25.983088    6.554891   -2.284554
 N   25.043451    6.318315   -1.390107
 C   26.984450    6.564367   -4.567978
 O   28.054771    6.002760   -4.416427
 N   26.775815    7.441363   -5.581870
 C   27.803001    7.660948   -6.579541
 C   27.210161    7.389156   -7.964367
 O   26.069012    8.187499   -8.197800
 C   25.074660    7.953088   -7.229494
 C   25.599818    8.244222   -5.817129
 C   24.833096    6.806338    3.494280
 C   26.109673    6.311277    3.237157
 C   27.195894    6.730633    3.978169
 C   27.018745    7.655244    4.988548
 C   25.753884    8.167442    5.252877
 C   24.645623    7.758924    4.504564
 C   23.283987    8.362367    4.766593
 N   25.630461    9.147571    6.272619
 C   26.502539   10.305817    6.200321
 C   25.756264   11.542058    6.686960
 C   24.914271    8.895139    7.406111
 C   24.891887    9.974470    8.403017
 C   25.273354   11.280099    8.083805
 C   25.187653   12.279422    9.028464
 C   24.726146   12.021946   10.331140
 C   24.345464   10.702873   10.635415
 C   24.422570    9.710632    9.688221
 N   24.658914   13.015477   11.265060
 C   24.914020   14.386408   10.897890
 C   24.248145   12.725171   12.616542
 O   24.316091    7.836216    7.570862
 O   22.489083    7.584670    5.628475
 H   24.817785    6.539550    0.788113
 H   22.354217    5.925211    4.254662
 H   20.501786    4.074871    3.682059
 H   19.938090    5.760101    3.709768
 H   19.599086    4.725017    2.294033
 H   22.034042    5.145473   -1.218841
 H   22.706482    5.056299   -3.450298
 H   24.483392    5.517966   -5.117761
 H   26.905424    6.963969   -1.894083
 H   28.632537    6.985732   -6.366541
 H   28.148815    8.699876   -6.524520
 H   26.943818    6.324172   -8.044890
 H   27.923994    7.643457   -8.748779
 H   24.735581    6.906695   -7.286213
 H   24.243506    8.615246   -7.477122
 H   25.880834    9.304285   -5.758887
 H   24.834662    8.038504   -5.069925
 H   26.240496    5.578691    2.455527
 H   28.179023    6.333069    3.776006
 H   27.858485    7.979435    5.584694
 H   22.728632    8.439413    3.826719
 H   23.407568    9.375441    5.179473
 H   26.822872   10.424603    5.162767
 H   27.393153   10.156323    6.827523
 H   24.899300   11.735309    6.033265
 H   26.410752   12.413885    6.653220
 H   25.492642   13.273553    8.744154
 H   23.973895   10.453296   11.614800
 H   24.117907    8.702133    9.923861
 H   25.965418   14.539039   10.632558
 H   24.292228   14.688802   10.050352
 H   24.678553   15.037165   11.736274
 H   23.194194   12.430185   12.665037
 H   24.855556   11.921817   13.040519
 H   24.384144   13.609305   13.234695
 H   22.998504    7.472547    6.456422
