21 
4rgd_ligand_xtb.xyz
 C   46.833407   21.810548   89.436025
 O   46.434320   22.221925   90.495475
 O   48.117757   21.798706   89.122037
 C   45.857911   21.233206   88.415216
 C   45.463408   19.817084   88.888727
 O   44.903076   19.829916   90.176656
 C   44.409650   19.217803   87.925971
 C   43.701597   18.000414   88.508259
 O   44.148792   17.299832   89.372275
 O   42.517849   17.725091   87.960873
 C   46.752131   18.937318   88.864040
 O   46.727366   17.861379   89.599347
 O   47.708572   19.276493   88.206866
 H   48.319563   21.169299   88.404368
 H   46.294654   21.182675   87.418485
 H   44.967862   21.864624   88.405245
 H   45.257895   20.576762   90.687042
 H   44.892118   18.920807   86.990235
 H   43.666236   19.988938   87.706482
 H   42.239877   18.353048   87.280931
 H   45.816862   17.664433   89.935448
