57 
4rj3_ligand_xtb.xyz
 C   -2.661148  -22.692690   45.376430
 C   -3.939406  -23.528604   45.478270
 C   -4.869994  -25.658817   42.155979
 C   -2.693483  -25.420103   46.313221
 C   -1.366160  -24.663243   46.227694
 C   -3.799749  -25.555510   44.143674
 C   -4.296788  -26.878050   41.875305
 C   -3.391365  -27.376083   42.831717
 C   -1.621270  -23.158545   46.398341
 C    0.505712  -22.462807   47.208235
 O   -0.460302  -22.374573   46.194204
 N   -3.627817  -24.929919   45.333095
 N   -4.630257  -24.981296   43.268691
 N   -3.158983  -26.715821   43.961402
 N   -2.746491  -28.549225   42.580861
 C   -1.723213  -29.185539   43.263879
 C   -1.073543  -28.630669   44.355887
 C   -0.054905  -29.393706   44.908981
 C    0.284130  -30.657593   44.354999
 C    1.362915  -31.162303   45.133768
 C    1.624549  -30.229252   46.086648
 N    0.771014  -29.159589   45.966435
 C    0.766442  -27.986716   46.800750
 C    0.735109  -28.325336   48.309568
 C    2.067803  -27.832414   48.875721
 C    2.405270  -26.634439   47.992844
 C    2.027289  -27.118613   46.595608
 C   -0.444188  -31.092797   43.251584
 N   -1.414204  -30.377640   42.727738
 H   -2.881746  -21.638111   45.539641
 H   -2.231873  -22.799428   44.379565
 H   -4.641954  -23.256782   44.691472
 H   -4.409018  -23.377348   46.456642
 H   -5.554648  -25.183388   41.464520
 H   -3.135926  -25.270347   47.305626
 H   -2.553416  -26.487626   46.146524
 H   -0.908237  -24.832584   45.251108
 H   -0.686525  -25.023740   47.001998
 H   -4.503987  -27.415847   40.965367
 H   -2.003833  -22.978651   47.419987
 H    0.062605  -22.287657   48.196859
 H    1.012181  -23.435040   47.214271
 H    1.238546  -21.685357   46.999815
 H   -3.033085  -29.054497   41.752959
 H   -1.362607  -27.660051   44.713379
 H    1.868543  -32.096572   44.993231
 H    2.368156  -30.246245   46.860351
 H   -0.127604  -27.421721   46.528827
 H    0.583203  -29.391601   48.470783
 H   -0.089959  -27.795008   48.785805
 H    2.836925  -28.598227   48.765031
 H    1.997183  -27.571560   49.930361
 H    3.451087  -26.339893   48.061732
 H    1.788025  -25.779966   48.277165
 H    1.848641  -26.300835   45.899298
 H    2.827007  -27.740110   46.189440
 H   -0.241852  -32.041218   42.771211
