24 
4rkx_ligand_aiqm1.xyz
 N   17.264862  -11.367512  -23.548286
 C   16.314781  -11.897625  -23.940670
 C   15.088552  -12.552386  -24.443552
 N   14.075918  -11.605458  -24.837355
 C   13.114082  -11.227229  -23.942952
 O   12.891208  -11.779589  -22.890848
 O   12.427642  -10.174528  -24.414653
 C   11.348322   -9.762432  -23.547223
 C   11.445697   -7.369062  -24.284045
 C   10.859186   -6.238074  -24.843568
 C    9.536448   -6.277741  -25.279945
 C    8.802810   -7.454119  -25.156333
 C    9.392492   -8.587839  -24.600759
 C   10.713708   -8.550442  -24.156381
 H   14.670960  -13.179299  -23.662302
 H   15.360253  -13.181674  -25.291823
 H   14.254517  -10.974128  -25.599825
 H   11.763066   -9.556681  -22.561671
 H   10.638923  -10.584069  -23.453292
 H   12.476803   -7.337131  -23.951965
 H   11.435253   -5.326908  -24.940693
 H    9.082072   -5.397538  -25.714545
 H    7.775908   -7.493980  -25.495241
 H    8.823237   -9.505758  -24.508871
