38 
4rvk_ligand_xtb.xyz
 C    6.134198    8.412656   18.044182
 C    8.079726    7.435167   17.116731
 N    3.888629   10.651794   19.665093
 C    2.722174   10.034970   19.626096
 N    6.189349   10.452008   19.050199
 C    6.712239    7.343065   17.378595
 C    4.810261    8.728105   18.497441
 N    8.845884    8.476213   17.465370
 N    9.197336    5.482721   15.884298
 C    6.953881    9.515116   18.411147
 C    8.721360    6.367002   16.436303
 C    8.309143    9.494010   18.095888
 C    4.899562   10.002876   19.114699
 C    3.572856    8.105451   18.468446
 C    2.498328    8.774580   19.049635
 C    1.152867    8.184398   19.055325
 C    0.345238    8.307370   20.181380
 C   -0.929118    7.754271   20.194454
 N   -1.779957    7.846689   21.299911
 C   -1.587522    8.499836   22.485186
 O   -0.594612    9.126231   22.771051
 C   -2.774288    8.351777   23.416140
 C   -1.394129    7.071966   19.070816
 C   -0.592257    6.952167   17.952483
 C    0.676152    7.502592   17.938295
 H    1.901666   10.581595   20.069171
 H    6.508805   11.329960   19.422889
 H    6.144278    6.477795   17.074045
 H    8.976693   10.305682   18.352027
 H    3.447694    7.125984   18.030590
 H    0.710020    8.816060   21.057448
 H   -2.665217    7.372546   21.183458
 H   -2.569059    8.883434   24.340444
 H   -3.668329    8.767672   22.955893
 H   -2.949151    7.301210   23.639203
 H   -2.384405    6.638003   19.076835
 H   -0.961479    6.426942   17.084208
 H    1.288182    7.422084   17.052625
