32 
4rvl_ligand_ani-2x.xyz
 N    9.341754    5.441618   15.688374
 C    8.842398    6.315772   16.258696
 C    8.155733    7.371610   16.970475
 N    8.888710    8.454675   17.301371
 C    8.295732    9.439682   17.952498
 C    6.939430    9.376045   18.297947
 N    6.133259   10.273090   18.965058
 C    4.863335    9.749026   19.058660
 N    3.829437   10.344248   19.640455
 C    2.691578    9.652965   19.617408
 C    6.810677    7.212167   17.265470
 C    6.179396    8.244997   17.949927
 C    4.844072    8.479025   18.437698
 C    3.636141    7.796976   18.415831
 C    2.526591    8.391971   19.015101
 C    1.198560    7.720643   19.049217
 C    0.573931    7.450003   20.268317
 C   -0.647947    6.794681   20.329833
 C   -1.279185    6.413450   19.148162
 C   -0.692570    6.686728   17.922646
 C    0.537626    7.341576   17.868652
 O    1.039315    7.594715   16.629733
 H    8.906083   10.304196   18.209786
 H    6.407210   11.170476   19.334079
 H    1.834296   10.133808   20.087064
 H    6.304519    6.301166   16.957471
 H    3.544948    6.805164   17.979426
 H    1.072943    7.747992   21.187475
 H   -1.108132    6.587051   21.290893
 H   -2.237765    5.901566   19.182943
 H   -1.168036    6.405134   16.987403
 H    1.829960    8.143787   16.721929
