49 
4rvm_ligand_aiqm1.xyz
 N    8.894825    5.647786   15.239890
 C    8.473203    6.428689   15.988430
 C    7.856602    7.356645   16.910214
 N    8.680917    8.268753   17.479104
 C    8.146911    9.133608   18.333671
 C    6.779587    9.126949   18.658308
 C    6.493267    7.250296   17.146124
 C    5.938685    8.158684   18.045919
 C    4.641220    8.425404   18.587081
 C    3.376453    7.888532   18.464026
 C    2.340693    8.447817   19.229878
 C    2.658280    9.551368   20.063387
 N    3.847156   10.106284   20.202963
 C    4.851657    9.543065   19.480662
 N    6.124248    9.961184   19.525489
 C    0.994415    7.894367   19.193453
 C    0.502314    7.241885   18.044973
 C   -0.748136    6.643420   18.029150
 C    0.139125    7.955507   20.311058
 C   -1.113642    7.359270   20.297196
 C   -1.565184    6.664430   19.167448
 C   -2.861983    5.939346   19.186187
 N   -2.672656    4.485071   19.669849
 C   -1.774556    3.686910   18.754533
 C   -1.743550    2.230550   19.190653
 C   -1.274400    2.110039   20.638725
 C   -2.132086    2.970119   21.564059
 C   -2.156382    4.413846   21.087303
 H    8.813978    9.859202   18.781345
 H    5.909563    6.486426   16.641174
 H    3.183862    7.026119   17.823872
 H    1.852786   10.023583   20.626079
 H    1.108290    7.221010   17.151942
 H   -1.101160    6.159915   17.120660
 H    0.467625    8.463795   21.204433
 H   -1.749609    7.426381   21.177513
 H   -3.306653    5.868073   18.193019
 H   -3.576289    6.392387   19.874452
 H   -3.594733    4.046819   19.655378
 H   -0.784863    4.125081   18.818134
 H   -2.153151    3.802353   17.741228
 H   -1.075187    1.690044   18.528822
 H   -2.738014    1.788985   19.077852
 H   -0.234806    2.432315   20.708496
 H   -1.309852    1.072851   20.956068
 H   -1.737448    2.950714   22.574458
 H   -3.152088    2.577118   21.607146
 H   -2.801666    5.036939   21.702903
 H   -1.155666    4.830765   21.083292
