49 
4rvm_ligand_ani-2x.xyz
 N    9.346248    5.705052   15.611367
 C    8.819558    6.537062   16.218675
 C    8.101069    7.536924   16.974943
 N    8.799891    8.634054   17.344647
 C    8.176844    9.570296   18.037531
 C    6.822783    9.468423   18.402092
 C    6.760148    7.317844   17.272663
 C    6.101067    8.297350   17.999169
 C    4.780526    8.520911   18.527457
 C    3.569411    7.858124   18.533680
 C    2.492706    8.447841   19.194647
 C    2.703551    9.708199   19.814118
 N    3.830346   10.384114   19.817156
 C    4.879109    9.809015   19.186070
 N    6.090481   10.365361   19.108103
 C    1.167676    7.805095   19.243521
 C    0.639004    7.179550   18.111242
 C   -0.612737    6.583052   18.149565
 C    0.407991    7.807735   20.417218
 C   -0.837122    7.197894   20.456576
 C   -1.372659    6.584308   19.321580
 C   -2.733570    5.928124   19.364062
 N   -2.715383    4.483617   19.753337
 C   -1.977377    3.602016   18.772952
 C   -2.245475    2.146330   19.119175
 C   -1.806990    1.841189   20.551589
 C   -2.483236    2.794910   21.536625
 C   -2.212027    4.241738   21.157239
 H    8.750633   10.445252   18.327418
 H    6.279277    6.407060   16.935584
 H    3.458513    6.885054   18.065064
 H    1.868363   10.193712   20.315991
 H    1.211341    7.186674   17.187587
 H   -1.004369    6.086373   17.262996
 H    0.815049    8.272708   21.310697
 H   -1.408052    7.190188   21.383994
 H   -3.208202    5.995276   18.380137
 H   -3.375091    6.451159   20.080167
 H   -3.703318    4.162735   19.742143
 H   -0.910532    3.828124   18.844450
 H   -2.312388    3.841537   17.758279
 H   -1.742927    1.492388   18.399600
 H   -3.326315    1.972291   19.020786
 H   -0.717439    1.964391   20.625681
 H   -2.026431    0.799215   20.809566
 H   -2.152444    2.609502   22.563359
 H   -3.571123    2.640067   21.509934
 H   -2.714174    4.936194   21.838984
 H   -1.140304    4.454671   21.178584
