41 
4rvt_ligand_ani-2x.xyz
 C  -19.763733    8.671184  -28.919258
 C  -19.469574    8.301841  -30.232436
 C  -18.258940    7.693674  -30.522846
 C  -17.328720    7.414243  -29.515257
 C  -17.639306    7.794110  -28.207322
 C  -18.840651    8.423159  -27.904153
 C  -16.034125    6.757287  -29.840982
 C  -15.169643    7.325155  -30.717806
 N  -13.972350    6.750141  -30.997933
 C  -13.487746    5.557684  -30.455136
 C  -14.385768    4.946379  -29.490104
 C  -15.623016    5.518179  -29.242943
 O  -16.482348    4.870307  -28.440362
 O  -20.963126    9.271130  -28.692555
 O  -12.387856    5.161379  -30.815707
 C  -13.940386    3.749791  -28.731372
 C  -12.993622    2.770184  -29.410692
 O  -14.280530    3.559661  -27.581654
 C  -13.016599    1.388033  -28.769857
 C  -11.971436    0.453579  -29.379609
 C  -11.908908   -0.930471  -28.725661
 C  -13.196381   -1.739602  -28.875188
 H  -20.197595    8.507269  -31.010934
 H  -18.039206    7.405133  -31.548771
 H  -16.920991    7.604006  -27.413076
 H  -19.064176    8.705909  -26.877946
 H  -15.385303    8.256538  -31.231626
 H  -13.335843    7.181993  -31.653925
 H  -17.335003    5.328365  -28.488009
 H  -21.040202    9.476518  -27.752303
 H  -11.996574    3.224894  -29.352588
 H  -13.224228    2.724161  -30.481186
 H  -14.018823    0.950252  -28.881945
 H  -12.847811    1.496434  -27.691231
 H  -10.983832    0.929656  -29.304705
 H  -12.177999    0.336779  -30.454378
 H  -11.670886   -0.816183  -27.658801
 H  -11.075546   -1.492968  -29.165218
 H  -14.037911   -1.257566  -28.365895
 H  -13.468168   -1.853986  -29.931379
 H  -13.085439   -2.741930  -28.448549
