68 
4rxa_ligand_xtb.xyz
 N  -10.333293   42.195284  -10.593671
 C  -11.405202   43.146516  -10.813283
 C  -12.276049   42.920740   -9.549984
 N  -11.508517   42.045472   -8.693045
 C  -10.443124   41.704986   -9.315510
 C   -9.437007   40.817996   -8.735776
 C   -8.366000   40.350893   -9.490060
 C   -9.562029   40.439913   -7.400116
 C   -8.622744   39.602721   -6.829869
 C   -7.552537   39.141734   -7.574966
 C   -7.417660   39.516766   -8.910478
 N   -6.313849   39.029473   -9.618418
 C   -5.919751   39.308801  -10.894772
 O   -6.519815   40.036204  -11.660378
 C   -4.660996   38.613721  -11.297020
 C   -3.609294   38.372499  -10.417220
 C   -2.460889   37.746350  -10.860568
 C   -4.525784   38.236203  -12.630450
 C   -3.380676   37.605486  -13.070413
 C   -2.331682   37.346565  -12.189549
 C   -1.109219   36.676688  -12.653446
 C   -0.495273   35.699987  -11.871230
 C    0.656299   35.069273  -12.299894
 C   -0.546300   36.995840  -13.888264
 C    0.600459   36.362618  -14.320330
 C    1.223866   35.403463  -13.526519
 C    2.449874   34.742764  -14.066047
 O    2.607611   34.560025  -15.254730
 N    3.353540   34.400678  -13.099755
 C    4.585172   33.753172  -13.236123
 C    5.373007   33.622686  -12.095241
 C    5.035284   33.233090  -14.446307
 C    6.254789   32.579866  -14.498280
 C    7.036253   32.442464  -13.367720
 C    6.599117   32.971917  -12.154902
 C    7.438103   32.827210  -10.968622
 N    8.352318   31.943193  -10.860908
 C    8.974188   32.082343   -9.564738
 C    8.326926   33.335933   -8.920121
 N    7.247780   33.620216   -9.851468
 H   -9.448678   42.307081  -11.057482
 H  -11.941971   42.913850  -11.736823
 H  -11.028546   44.175051  -10.875429
 H  -13.225159   42.433905   -9.791095
 H  -12.499661   43.846744   -9.014512
 H   -8.259526   40.612006  -10.528710
 H  -10.403051   40.812171   -6.838902
 H   -8.719321   39.305162   -5.796367
 H   -6.817862   38.487998   -7.124552
 H   -5.739621   38.379991   -9.098986
 H   -3.661803   38.705161   -9.389473
 H   -1.641579   37.586971  -10.174735
 H   -5.338241   38.445012  -13.309840
 H   -3.301022   37.293857  -14.101030
 H   -0.941120   35.414326  -10.929594
 H    1.085889   34.287924  -11.687934
 H   -1.004051   37.756613  -14.502569
 H    1.036585   36.599966  -15.278842
 H    3.131920   34.682040  -12.154645
 H    5.011820   34.010061  -11.151801
 H    4.429547   33.340951  -15.329918
 H    6.593883   32.173121  -15.438975
 H    7.984460   31.931077  -13.392618
 H   10.055668   32.174867   -9.689471
 H    8.777914   31.178773   -8.981380
 H    9.033437   34.171468   -8.849109
 H    7.924714   33.130815   -7.924791
 H    6.932279   34.570889   -9.953826
