40 
4ryl_ligand_aiqm1.xyz
 C   -5.821342   -0.332875  -12.841210
 C   -5.973955   -0.992469  -14.029076
 C   -5.714318   -0.327932  -15.253423
 N   -5.283230    1.604255  -11.538174
 C   -5.855162   -0.960240  -16.513286
 C   -5.220261    0.926182  -17.626384
 N   -5.623298   -0.377332  -17.668529
 C   -5.048472    1.643594  -16.472142
 C   -5.296498    1.022898  -15.221737
 C   -5.141541    1.697559  -13.984499
 C   -3.849377    6.733572   -7.814616
 N   -4.510036    5.565584   -7.235174
 C   -3.960875    7.768144   -6.696647
 C   -3.905553    6.915437   -5.428482
 C   -4.745490    5.695201   -5.799337
 O   -4.554994    3.730458  -12.046666
 C   -4.865314    2.885664  -11.223459
 N   -4.811911    3.115510   -9.883732
 C   -4.517729    4.430335   -9.382525
 C   -4.838209    4.443383   -7.892089
 O   -5.371925    3.477147   -7.362915
 C   -5.400577    1.028478  -12.808922
 H   -6.021560   -0.845394  -11.905857
 H   -6.294342   -2.027206  -14.040824
 H   -5.470094    0.988448  -10.765623
 H   -6.176210   -1.998929  -16.546392
 H   -5.035541    1.383543  -18.590186
 H   -4.725502    2.676726  -16.513883
 H   -4.820684    2.728131  -13.971288
 H   -4.340903    7.046832   -8.735893
 H   -2.804086    6.511005   -8.049051
 H   -4.921444    8.281394   -6.762573
 H   -3.169173    8.512818   -6.749210
 H   -4.292073    7.431724   -4.552133
 H   -2.876975    6.612287   -5.224033
 H   -4.445564    4.779647   -5.293583
 H   -5.809306    5.848157   -5.601074
 H   -5.246707    2.506163   -9.209381
 H   -5.113664    5.193987   -9.894046
 H   -3.470208    4.698512   -9.554245
