66 
4sga_ligand_xtb.xyz
 C   -2.702542   -2.424512   -2.272453
 O   -1.786507   -2.421347   -3.089340
 C   -3.153173   -3.688589   -1.588378
 N   -3.364672   -1.305067   -1.939624
 C   -3.044000   -0.021125   -2.533645
 C   -2.076587    0.836988   -1.699278
 O   -1.283498    1.583565   -2.233821
 C   -4.405371    0.676787   -2.619562
 C   -5.126086    0.175825   -1.367657
 C   -4.612024   -1.258744   -1.194784
 N   -2.269418    0.780802   -0.370350
 C   -1.451594    1.519528    0.566513
 C   -1.187663    0.582096    1.746200
 O   -2.014107   -0.263513    2.050781
 C   -2.209233    2.753609    1.071571
 N   -0.047807    0.751055    2.436649
 C    1.052584    1.640761    2.116992
 C    1.701207    1.358801    0.747715
 O    2.338943    2.211629    0.172178
 C    2.076239    1.390343    3.235518
 C    1.791654   -0.049294    3.655798
 C    0.273953   -0.128729    3.553301
 N    1.539266    0.098666    0.305906
 C    1.792003   -0.285462   -1.061971
 C    0.540356   -1.006627   -1.556126
 O   -0.338788   -1.327220   -0.785699
 C    3.023296   -1.210651   -1.161936
 C    4.179151   -0.547268   -0.469021
 C    4.892239    0.464448   -1.097891
 C    4.495102   -0.877524    0.841537
 C    5.900294    1.132580   -0.428202
 C    5.501679   -0.208273    1.514947
 C    6.204519    0.801305    0.881324
 O    0.538231   -1.252082   -2.836870
 H   -2.503594   -4.502302   -1.897956
 H   -4.180081   -3.930173   -1.855461
 H   -3.089887   -3.565789   -0.509709
 H   -2.579047   -0.167341   -3.513080
 H   -4.928613    0.350141   -3.519299
 H   -4.307157    1.759677   -2.646322
 H   -4.855432    0.789053   -0.509457
 H   -6.208393    0.202984   -1.479438
 H   -5.321024   -1.976880   -1.621379
 H   -4.459091   -1.519767   -0.143088
 H   -2.743011   -0.006555    0.053763
 H   -0.537764    1.832139    0.054734
 H   -1.597591    3.318196    1.770148
 H   -3.124434    2.447083    1.573897
 H   -2.460192    3.393560    0.229681
 H    0.733368    2.688058    2.103233
 H    3.093952    1.536990    2.878400
 H    1.894013    2.070575    4.068265
 H    2.259493   -0.740428    2.955195
 H    2.149474   -0.269525    4.658852
 H   -0.110290   -1.130642    3.353564
 H   -0.207073    0.247104    4.463228
 H    0.872128   -0.507425    0.770063
 H    1.962019    0.620119   -1.653315
 H    3.237076   -1.385790   -2.216342
 H    2.791886   -2.165335   -0.684331
 H    4.649697    0.733795   -2.115075
 H    3.950411   -1.669168    1.338186
 H    6.445254    1.920764   -0.925815
 H    5.734369   -0.472971    2.536863
 H    6.986415    1.329252    1.407278
 H   -0.314426   -1.711858   -3.095200
