38 
4tkb_ligand_xtb.xyz
 O   -6.968055   15.850446   15.331103
 O   -4.776626   15.667462   15.569762
 C   -5.877717   16.235089   15.032123
 C   -5.590093   17.359241   14.055659
 C   -6.871879   17.953715   13.478184
 C   -6.582773   19.082284   12.492246
 C   -7.871595   19.675355   11.927956
 C   -7.634956   20.706633   10.823248
 C   -6.838667   21.941890   11.248018
 C   -7.517294   22.755362   12.347858
 C   -6.758694   24.048988   12.637918
 C   -7.447517   24.937937   13.673933
 C   -7.447012   24.347484   15.082589
 C   -8.040359   25.317974   16.096724
 H   -3.957195   16.065607   15.248907
 H   -4.962502   16.965246   13.249689
 H   -5.018422   18.132910   14.578512
 H   -7.489155   18.325964   14.297338
 H   -7.435864   17.161919   12.982681
 H   -5.972734   18.700416   11.669430
 H   -6.010130   19.860989   12.999521
 H   -8.447812   20.125145   12.737606
 H   -8.475950   18.865135   11.512771
 H   -8.606454   21.031938   10.443219
 H   -7.106204   20.221337    9.998697
 H   -6.709355   22.579166   10.369118
 H   -5.841733   21.644949   11.578956
 H   -7.574816   22.158972   13.258176
 H   -8.536927   22.997681   12.038929
 H   -6.658597   24.612477   11.706541
 H   -5.750558   23.807160   12.984170
 H   -8.477859   25.123459   13.361305
 H   -6.933871   25.902428   13.701915
 H   -6.421128   24.105156   15.370488
 H   -8.025295   23.422269   15.096498
 H   -7.465560   26.241381   16.124382
 H   -9.066987   25.563194   15.833149
 H   -8.037054   24.881842   17.093082
