38 
4tkb_ligand_ani-2x.xyz
 O   -6.998916   16.152868   15.506389
 O   -4.811161   16.089608   15.851158
 C   -5.909291   16.572905   15.223821
 C   -5.643118   17.644186   14.180364
 C   -6.923071   18.140787   13.519239
 C   -6.662348   19.206978   12.459741
 C   -7.938228   19.695326   11.774439
 C   -7.695516   20.705429   10.646994
 C   -6.892839   21.944659   11.059112
 C   -7.488055   22.697776   12.248822
 C   -6.721450   23.973345   12.596516
 C   -7.343107   24.782014   13.738259
 C   -7.362991   24.056174   15.084068
 C   -7.921026   24.922286   16.210611
 H   -4.014866   16.524378   15.515986
 H   -4.954118   17.231402   13.428632
 H   -5.108821   18.473723   14.666403
 H   -7.591363   18.531537   14.296168
 H   -7.445751   17.283703   13.077686
 H   -5.975073   18.807889   11.698818
 H   -6.143757   20.056216   12.926207
 H   -8.608791   20.134850   12.526932
 H   -8.476338   18.829940   11.363726
 H   -8.667322   21.024731   10.244954
 H   -7.171623   20.203321    9.821480
 H   -6.825683   22.624461   10.198347
 H   -5.858330   21.654753   11.292823
 H   -7.507699   22.033573   13.122984
 H   -8.537203   22.947669   12.030806
 H   -6.658686   24.608793   11.702022
 H   -5.685730   23.710685   12.860987
 H   -8.371710   25.063436   13.466642
 H   -6.788308   25.723575   13.852486
 H   -6.341982   23.736769   15.334472
 H   -7.959867   23.139098   15.003958
 H   -7.323195   25.831788   16.342628
 H   -8.950230   25.231917   15.993672
 H   -7.927835   24.384050   17.164049
