38 
4tkb_ligand_aiqm1.xyz
 O   -6.987126   16.137835   15.519035
 O   -4.801898   16.145919   15.867196
 C   -5.917603   16.591092   15.229647
 C   -5.666222   17.654682   14.182600
 C   -6.935761   18.129063   13.492232
 C   -6.660854   19.196430   12.444286
 C   -7.931676   19.689301   11.762926
 C   -7.678725   20.704819   10.648545
 C   -6.891490   21.943076   11.078717
 C   -7.512929   22.694702   12.249831
 C   -6.743500   23.961397   12.602860
 C   -7.357142   24.766165   13.745267
 C   -7.340587   24.049623   15.091511
 C   -7.887561   24.924242   16.213879
 H   -4.029089   16.603458   15.524690
 H   -4.961580   17.247386   13.449157
 H   -5.159757   18.495020   14.669993
 H   -7.630595   18.515971   14.241240
 H   -7.436729   17.274040   13.032249
 H   -5.974898   18.797809   11.687715
 H   -6.144218   20.041064   12.913627
 H   -8.597955   20.123379   12.516616
 H   -8.465882   18.832072   11.343450
 H   -8.644147   21.018072   10.240229
 H   -7.141181   20.214109    9.830543
 H   -6.808052   22.619859   10.222834
 H   -5.864664   21.658355   11.339902
 H   -7.557928   22.033173   13.123610
 H   -8.549442   22.953134   12.006429
 H   -6.678772   24.596866   11.714638
 H   -5.712528   23.691302   12.863492
 H   -8.391114   25.027009   13.490398
 H   -6.816260   25.712144   13.843158
 H   -6.314327   23.748929   15.323944
 H   -7.924749   23.127486   15.029521
 H   -7.296388   25.836428   16.320059
 H   -8.917725   25.219289   16.005604
 H   -7.874345   24.401902   17.170767
