21 
4to8_ligand_ani-2x.xyz
 C   14.013005   27.318511    7.751299
 C   15.051336   27.890356    6.801103
 C   15.460056   26.911259    5.691092
 C   14.275080   26.737584    4.717084
 C   16.665000   27.478590    4.928491
 C   17.204570   26.609932    3.791531
 O   13.276326   28.198084    8.441689
 O   13.850362   26.132442    7.930281
 O   14.030663   25.481174    4.347367
 O   13.642089   27.683349    4.324508
 O   17.494223   27.056161    2.714146
 O   17.386120   25.312924    4.089781
 O   15.816276   25.631997    6.209885
 H   15.933284   28.162849    7.395305
 H   14.668110   28.792636    6.318340
 H   17.487277   27.631221    5.642221
 H   16.406641   28.448303    4.501702
 H   13.508658   29.106998    8.201248
 H   14.668075   24.927067    4.838840
 H   17.048659   25.136580    4.988826
 H   15.187789   25.424184    6.934160
