61 
4tpp_ligand_xtb.xyz
 C    6.753882   93.775783   41.846460
 C    7.306970   92.693620   42.751333
 O    6.576271   91.992630   43.425942
 N    8.655073   92.560911   42.795042
 C    9.238379   91.487418   43.572014
 C    9.883875   90.453387   42.651600
 C   10.936027   91.131510   41.760378
 C   10.280900   92.281321   40.996651
 C    9.622128   93.253399   41.977723
 C   11.539372   90.118578   40.833109
 N   11.183770   90.093238   39.583232
 C   11.724926   89.153442   38.769852
 C   11.355113   89.103166   37.415000
 C   11.907193   88.154742   36.595791
 C   12.839783   87.233158   37.094195
 C   13.218670   87.259083   38.410278
 C   12.666046   88.220223   39.272386
 N   13.035190   88.254793   40.576886
 C   12.490020   89.165204   41.332907
 O   12.816449   89.236590   42.635037
 C   13.753415   88.283806   43.084818
 C   15.224768   88.568880   42.728266
 N   15.491441   88.788169   44.138746
 C   14.131563   88.501416   44.556347
 C   16.660794   88.553300   44.784198
 C   16.689786   88.521468   46.208138
 C   17.885337   88.334688   46.828454
 C   19.061695   88.182376   46.055619
 C   20.334099   87.987222   46.618711
 C   21.434239   87.846255   45.816136
 C   21.300411   87.895417   44.421178
 C   20.075481   88.084825   43.842135
 C   18.924539   88.233508   44.642083
 N   17.733847   88.410934   44.037107
 H    7.014397   93.583339   40.808263
 H    5.671775   93.769435   41.945128
 H    7.128270   94.754381   42.138188
 H    8.437861   91.034322   44.159215
 H    9.990988   91.907441   44.249438
 H    9.114735   90.003874   42.020386
 H   10.347595   89.668341   43.249330
 H   11.733337   91.518411   42.405817
 H    9.531562   91.871358   40.319320
 H   11.025952   92.805365   40.397486
 H   10.389428   93.675645   42.640216
 H    9.153379   94.072960   41.437590
 H   10.636595   89.821812   37.053108
 H   11.626742   88.110137   35.553892
 H   13.260846   86.496155   36.426376
 H   13.934551   86.559248   38.811977
 H   13.411534   87.279868   42.820526
 H   15.379748   89.463551   42.122645
 H   15.779022   87.735886   42.294191
 H   14.021587   87.621342   45.195989
 H   13.629181   89.357848   45.013792
 H   15.772891   88.650329   46.762144
 H   17.954975   88.301577   47.907549
 H   20.426813   87.950638   47.695678
 H   22.411214   87.696372   46.251854
 H   22.179578   87.781984   43.803143
 H   19.955892   88.125721   42.770707
