41 
4tqn_ligand_ani-2x.xyz
 O  -16.412171   -6.171081   -7.647213
 C  -17.467701   -5.811456   -7.196957
 O  -18.620914   -6.337861   -7.665075
 C  -17.596078   -4.782250   -6.113025
 C  -18.717576   -3.956973   -5.985831
 C  -18.767425   -3.004751   -4.972103
 C  -17.698996   -2.867049   -4.091531
 C  -16.522489   -4.629903   -5.243004
 C  -16.565530   -3.672844   -4.234338
 C  -15.381337   -3.573625   -3.327774
 O  -14.595016   -4.488164   -3.182450
 N  -15.240013   -2.359943   -2.688894
 C  -14.188193   -2.133995   -1.763879
 C  -13.152960   -1.264862   -2.065002
 C  -12.107635   -1.039886   -1.166283
 C  -10.968835   -0.114723   -1.465114
 O  -10.083960    0.051764   -0.648484
 C  -10.945066    0.602551   -2.797668
 C  -12.122948   -1.700821    0.059854
 C  -13.156636   -2.568629    0.385934
 C  -14.195362   -2.792364   -0.520948
 O  -15.260121   -3.594242   -0.286690
 C  -15.301938   -4.310582    0.937954
 C  -16.558406   -5.154727    0.929110
 H  -19.364158   -6.066805   -7.109224
 H  -19.542596   -4.026829   -6.693065
 H  -19.643144   -2.369256   -4.865587
 H  -17.757735   -2.149547   -3.275919
 H  -15.645493   -5.260672   -5.353804
 H  -15.677795   -1.549121   -3.099539
 H  -13.160640   -0.768577   -3.032410
 H  -11.834179    1.231782   -2.916620
 H  -10.050015    1.225031   -2.839831
 H  -10.931556   -0.114733   -3.625904
 H  -11.310693   -1.523736    0.758373
 H  -13.144075   -3.067845    1.350374
 H  -15.307912   -3.605664    1.781764
 H  -14.405636   -4.940978    1.028666
 H  -17.445820   -4.521963    0.836862
 H  -16.543409   -5.859847    0.092840
 H  -16.632736   -5.723523    1.861135
