57 
4tsx_ligand_dft.xyz
 C    0.723878   -1.008982    0.200147
 C    1.675982   -0.011771    0.181575
 C    3.042974   -0.353767   -0.092130
 N    3.428368   -1.578282   -0.359794
 C    2.502543   -2.577356   -0.356172
 C    1.133881   -2.354029   -0.067013
 C   -0.711754   -0.725984    0.479582
 C   -1.133463   -0.278908    1.737191
 C   -2.469266    0.003783    1.971576
 C   -3.411795   -0.160283    0.954499
 C   -3.017089   -0.602437   -0.314824
 C   -1.667651   -0.883324   -0.522714
 C    0.250777   -3.464611   -0.043109
 C    0.709816   -4.728005   -0.318574
 C    2.071921   -4.944339   -0.625851
 C    2.950182   -3.891689   -0.640775
 C    4.130147    0.689453   -0.058852
 C    1.290675    1.446009    0.377651
 C    1.950914    2.074926    1.607218
 O    2.507273    3.141245    1.649327
 O    1.797820    1.288929    2.693554
 O    1.608240    2.184871   -0.768109
 C    0.607816    3.053769   -1.327083
 C    1.354754    3.757168   -2.457195
 C    0.113215    4.076851   -0.301673
 C   -0.554778    2.227592   -1.886454
 O   -4.697177    0.155076    1.266273
 C   -5.696768   -0.269600    0.348148
 C   -5.304319    0.031816   -1.089693
 C   -4.029104   -0.739254   -1.430034
 H   -0.401491   -0.144757    2.528113
 H   -2.810540    0.351281    2.941189
 H   -1.348714   -1.214934   -1.508791
 H   -0.793919   -3.305758    0.202176
 H    0.023118   -5.568949   -0.294807
 H    2.421728   -5.949730   -0.841050
 H    4.004440   -4.025132   -0.859901
 H    3.834007    1.605386   -0.573952
 H    4.371872    0.954650    0.978036
 H    5.028539    0.272077   -0.516092
 H    0.216986    1.479283    0.588965
 H    2.208192    1.764772    3.433387
 H    2.204460    4.314945   -2.053138
 H    0.692690    4.452165   -2.983190
 H    1.732682    3.022006   -3.174214
 H    0.958405    4.614897    0.133884
 H   -0.558785    4.792693   -0.786462
 H   -0.449592    3.602083    0.510279
 H   -1.128991    1.735789   -1.094494
 H   -1.243413    2.873573   -2.441612
 H   -0.174684    1.456546   -2.564291
 H   -6.603446    0.261137    0.645167
 H   -5.867110   -1.348278    0.478506
 H   -5.137208    1.110103   -1.193300
 H   -6.122069   -0.244065   -1.763128
 H   -4.269641   -1.799588   -1.584666
 H   -3.596267   -0.377351   -2.369056
