32 
4tte_ligand_xtb.xyz
 C  -12.148098   24.033890   12.591533
 C  -13.359295   24.282850   11.772100
 O  -14.368032   24.977736   12.323592
 N  -15.384549   25.079959   11.431780
 C  -15.029130   24.446291   10.347627
 C  -15.917862   24.374165    9.161949
 C  -13.714197   23.904605   10.500098
 C  -12.933854   23.145290    9.527898
 C  -13.533349   22.139458    8.777310
 C  -11.585985   23.431906    9.344137
 C  -10.817240   22.720799    8.421927
 N   -9.468403   22.962639    8.300618
 C  -11.428156   21.715384    7.674949
 C  -12.775445   21.429006    7.852713
 C  -13.368002   20.354569    7.023389
 O  -12.761761   19.713627    6.198709
 O  -14.672752   20.160766    7.279694
 C  -15.304745   19.143526    6.519953
 H  -11.489641   24.902497   12.573313
 H  -12.437436   23.854431   13.624636
 H  -11.609871   23.173343   12.203255
 H  -16.482912   23.442884    9.171995
 H  -16.622312   25.200852    9.186804
 H  -15.329717   24.410163    8.247627
 H  -14.572112   21.894557    8.918267
 H  -11.126454   24.229175    9.910027
 H   -9.131993   23.853462    8.626516
 H   -9.021339   22.614372    7.468855
 H  -10.864963   21.148119    6.949458
 H  -15.247004   19.374040    5.453899
 H  -14.819342   18.181053    6.695508
 H  -16.340248   19.115284    6.849562
