58 
4tv3_ligand_aiqm1.xyz
 C  -16.354350    6.793744   26.995276
 C  -15.975040    5.656622   26.315875
 C  -14.966749    8.051123   25.527860
 C  -15.837459    8.043698   26.607605
 C  -15.513394   11.453441   28.259544
 C  -14.580426   12.460142   28.562714
 C  -16.833334   11.679140   28.679905
 C  -15.078838    5.796283   25.242616
 C  -16.222185   13.662178   29.573637
 C  -15.215739   10.233350   27.562878
 C  -16.165746    9.303419   27.318276
 C  -17.556946    9.540599   27.762567
 C  -20.187904   11.159159   27.721312
 C  -19.692251   10.052334   29.936942
 C  -21.543098   11.611916   28.258754
 C  -21.048300   10.517282   30.462739
 C  -19.203391   11.039899   28.880795
 C  -22.054098   10.648640   29.318940
 C  -13.141037   12.333996   28.162730
 C  -13.830394    4.813805   23.501534
 C  -24.991863    9.504557   29.158803
 C  -24.190803   10.156647   30.266342
 N  -14.586628    6.955790   24.848276
 N  -14.929354   13.562423   29.213244
 N  -17.191678   12.787913   29.331702
 N  -17.813452   10.745582   28.424149
 N  -16.560787   14.764521   30.291338
 O  -18.457892    8.738046   27.562000
 O  -25.887038   10.472182   28.627645
 O  -14.724729    4.666781   24.601652
 O  -23.301435   11.149719   29.794743
 H  -17.061651    6.734371   27.809905
 H  -16.345924    4.673578   26.573189
 H  -14.552513    8.987607   25.167041
 H  -14.195613   10.064898   27.238155
 H  -19.804891   11.876373   26.987761
 H  -20.296034   10.193575   27.227175
 H  -19.793217    9.059570   29.496913
 H  -18.960349    9.993063   30.749448
 H  -22.278503   11.683649   27.454139
 H  -21.460626   12.603245   28.717498
 H  -20.950956   11.497351   30.941672
 H  -21.426758    9.827239   31.222881
 H  -19.141939   12.014802   29.356499
 H  -22.192597    9.656315   28.867905
 H  -12.695428   11.440268   28.601632
 H  -13.044082   12.248230   27.079398
 H  -12.599120   13.213013   28.505039
 H  -14.265840    5.449515   22.731142
 H  -12.884002    5.245972   23.826760
 H  -13.675130    3.809354   23.119398
 H  -25.547414    8.660421   29.584010
 H  -24.324585    9.116524   28.382822
 H  -23.652005    9.376618   30.817872
 H  -24.881268   10.655756   30.948335
 H  -15.903742   15.523214   30.292416
 H  -17.538435   14.973258   30.380761
 H  -26.302040   10.108592   27.844337
