58 
4tv3_ligand_xtb.xyz
 C  -16.456034    6.857905   27.052784
 C  -16.138922    5.714377   26.358875
 C  -15.018274    8.054949   25.585002
 C  -15.883116    8.078883   26.673135
 C  -15.479056   11.465361   28.267466
 C  -14.538678   12.478684   28.551640
 C  -16.806233   11.708769   28.691786
 C  -15.242113    5.813201   25.287547
 C  -16.168783   13.714614   29.542909
 C  -15.193040   10.247328   27.604981
 C  -16.169442    9.333124   27.374626
 C  -17.545739    9.582166   27.800392
 C  -20.121247   11.203829   27.747751
 C  -19.639189   10.067983   29.938133
 C  -21.492983   11.615989   28.268771
 C  -21.009370   10.490541   30.455170
 C  -19.142052   11.091582   28.916851
 C  -22.007997   10.608391   29.296700
 C  -13.104353   12.355552   28.153258
 C  -14.018718    4.841785   23.544015
 C  -24.908361    9.378936   29.012150
 C  -24.168662   10.065087   30.169719
 N  -14.700200    6.961551   24.912613
 N  -14.885249   13.582152   29.178357
 N  -17.136875   12.833292   29.324852
 N  -17.782852   10.786478   28.457983
 N  -16.493457   14.839668   30.205147
 O  -18.460011    8.801053   27.594930
 O  -26.021171   10.167988   28.659477
 O  -14.925403    4.691429   24.618986
 O  -23.273193   11.063950   29.754668
 H  -17.138477    6.819547   27.886335
 H  -16.552049    4.752900   26.615246
 H  -14.564235    8.964527   25.212574
 H  -14.178288   10.041126   27.299512
 H  -19.754037   11.945209   27.034748
 H  -20.190986   10.241735   27.239892
 H  -19.710038    9.088061   29.465851
 H  -18.929216   10.003507   30.765978
 H  -22.206188   11.683607   27.446435
 H  -21.442186   12.595584   28.746642
 H  -20.945129   11.459604   30.953953
 H  -21.370849    9.761904   31.183679
 H  -19.063688   12.066440   29.405875
 H  -22.108709    9.624845   28.814605
 H  -12.654458   11.482507   28.622545
 H  -13.018440   12.247490   27.073568
 H  -12.571576   13.247442   28.468772
 H  -14.419301    5.528301   22.794949
 H  -13.061573    5.231552   23.897830
 H  -13.890314    3.848371   23.119448
 H  -25.237433    8.380082   29.336936
 H  -24.227917    9.261290   28.158398
 H  -23.657322    9.305055   30.774901
 H  -24.913509   10.574381   30.785416
 H  -15.797655   15.554504   30.309420
 H  -17.455577   15.018626   30.424921
 H  -26.421073    9.816505   27.857392
