30 
4tx6_ligand_xtb.xyz
 C   15.958705   41.330932   75.270877
 C   15.521825   39.913590   75.139146
 N   14.990346   39.512071   74.030684
 N   15.705430   39.098828   76.208727
 C   15.368338   37.730123   76.286779
 O   15.601214   37.126636   77.308882
 C   14.777580   37.289266   75.052202
 C   14.625259   38.214319   74.017508
 O   14.045643   37.639939   72.972896
 N   13.789744   36.336466   73.284000
 C   14.205277   36.093144   74.500923
 C   14.073878   34.779119   75.111974
 C   14.979349   34.366099   76.083063
 C   14.887970   33.110259   76.653445
 C   13.878185   32.253270   76.256699
 C   12.958014   32.647202   75.300638
 C   13.038645   33.906162   74.713454
 O   12.165051   34.372949   73.794640
 C   11.114076   33.544246   73.363307
 H   17.026040   41.379075   75.480780
 H   15.749233   41.853101   74.343187
 H   15.426110   41.815601   76.087594
 H   16.123962   39.475159   77.052294
 H   15.760192   35.038637   76.397303
 H   15.601091   32.805567   77.403232
 H   13.796476   31.268912   76.693812
 H   12.176259   31.961578   75.014110
 H   11.488571   32.630950   72.889953
 H   10.441617   33.278830   74.186405
 H   10.567619   34.130971   72.626886
