17 
4txs_ligand_ani-2x.xyz
 C   -2.664122  -22.575289   20.029451
 C   -2.757812  -24.727200   18.271563
 C   -3.791553  -24.503070   19.171243
 C   -1.616542  -22.785906   19.139636
 C   -4.893191  -23.225221   21.047746
 C   -5.373650  -21.837486   21.099176
 O   -0.671152  -24.122844   17.358797
 N   -5.730303  -20.738722   21.147971
 C   -1.662664  -23.863885   18.255835
 C   -3.763082  -23.429430   20.056852
 H   -2.626754  -21.728556   20.711647
 H   -2.780278  -25.562859   17.577857
 H   -4.643465  -25.180566   19.180618
 H   -0.763461  -22.109048   19.131220
 H   -5.737126  -23.877151   20.801074
 H   -4.572356  -23.494372   22.062216
 H    0.020613  -23.456095   17.452997
