17 
4txs_ligand_xtb.xyz
 C   -2.572090  -22.663924   20.157688
 C   -2.844501  -24.620367   18.218891
 C   -3.845173  -24.420287   19.148518
 C   -1.566536  -22.854882   19.229311
 C   -4.817025  -23.213882   21.140046
 C   -5.477481  -21.963565   20.852307
 O   -0.733319  -24.063043   17.321566
 N   -5.982144  -20.967520   20.608620
 C   -1.695643  -23.836141   18.252987
 C   -3.718084  -23.446573   20.129903
 H   -2.464120  -21.895021   20.909114
 H   -2.934204  -25.376849   17.456072
 H   -4.734300  -25.032858   19.108341
 H   -0.677501  -22.238938   19.259965
 H   -5.557101  -24.017161   21.101949
 H   -4.406878  -23.158936   22.153268
 H   -0.000801  -23.447751   17.447352
