50 
4ty1_ligand_xtb.xyz
 C  -19.668056   28.944254    3.528397
 C  -20.129556   30.239753    2.862154
 C  -21.643029   30.409644    3.033341
 C  -19.383912   31.432909    3.464040
 N  -19.782389   30.133060    1.448045
 C  -20.133211   31.005317    0.487472
 N  -20.027764   30.777347   -0.792759
 N  -20.425743   31.905467   -1.413570
 C  -20.757316   32.766704   -0.507414
 O  -20.590984   32.247010    0.755995
 C  -21.257979   34.101820   -0.725081
 C  -21.390546   34.531609   -2.060178
 C  -21.872346   35.782512   -2.358348
 C  -22.226384   36.607998   -1.296551
 N  -22.733223   37.878505   -1.299818
 C  -22.933085   38.285629   -0.020720
 C  -22.559371   37.292940    0.853873
 C  -22.640653   37.389131    2.292787
 N  -23.155716   38.519291    2.789912
 C  -23.234768   38.612085    4.103241
 C  -22.808356   37.604330    4.951928
 C  -22.279131   36.464139    4.344243
 N  -22.203531   36.366584    3.021991
 C  -21.776046   35.331416    5.136919
 C  -21.911789   33.937221    4.577917
 C  -20.571726   34.579686    4.625648
 C  -22.097646   36.195259    0.051530
 C  -21.605197   34.926274    0.336099
 H  -19.861625   28.985278    4.596661
 H  -20.200118   28.089342    3.116063
 H  -18.601096   28.799697    3.376029
 H  -21.899491   30.433532    4.088801
 H  -21.974789   31.338670    2.578323
 H  -22.172282   29.582605    2.563960
 H  -19.593596   31.505912    4.527125
 H  -18.312484   31.312493    3.323162
 H  -19.696825   32.355792    2.986624
 H  -19.581607   29.215499    1.084331
 H  -21.102345   33.843543   -2.837918
 H  -21.975736   36.114475   -3.380587
 H  -22.927340   38.423012   -2.123765
 H  -23.327553   39.254621    0.212713
 H  -23.656634   39.534265    4.485728
 H  -22.877286   37.693854    6.023966
 H  -21.874014   35.457301    6.207966
 H  -22.397652   33.851475    3.618670
 H  -22.136241   33.138679    5.268628
 H  -19.848151   34.235398    5.348850
 H  -20.147341   34.932129    3.698313
 H  -21.501345   34.601537    1.358262
