30 
4tz2_ligand_xtb.xyz
 C   21.926271  -43.586925   10.273142
 C   20.664490  -43.704482    9.696771
 N   19.577590  -43.081054   10.264695
 C   20.511500  -44.522386    8.573596
 C   21.594881  -45.201133    8.052235
 C   22.847894  -45.085464    8.626358
 C   23.016190  -44.271554    9.747039
 C   24.302196  -44.101781   10.388979
 N   25.454959  -44.756834   10.049301
 N   24.553565  -43.292051   11.391634
 N   25.839218  -43.401495   11.715483
 C   26.400352  -44.280779   10.918521
 C   27.791313  -44.677171   10.956479
 C   28.625298  -44.093595   11.911896
 C   29.958037  -44.445453   11.980026
 C   30.478348  -45.381721   11.099420
 C   29.657210  -45.964789   10.149012
 C   28.321093  -45.617809   10.074115
 H   22.080948  -42.962618   11.139028
 H   19.773853  -42.324763   10.899120
 H   18.766675  -42.954196    9.682354
 H   19.537237  -44.619838    8.116646
 H   21.461596  -45.827785    7.182340
 H   23.680720  -45.620671    8.194457
 H   25.574954  -45.444126    9.325914
 H   28.198047  -43.368255   12.585681
 H   30.597081  -43.989828   12.721776
 H   31.521213  -45.656884   11.153027
 H   30.059612  -46.694568    9.461478
 H   27.697660  -46.084992    9.324479
