30 
4tz2_ligand_ani-2x.xyz
 C   21.914791  -43.579227   10.262515
 C   20.638688  -43.746096    9.723496
 N   19.534926  -43.128028   10.312056
 C   20.478433  -44.589416    8.616734
 C   21.576949  -45.239052    8.066049
 C   22.846496  -45.071618    8.603433
 C   23.009029  -44.242058    9.712479
 C   24.321846  -44.022168   10.331689
 N   25.451873  -44.755400   10.080989
 N   24.598223  -43.079973   11.195279
 N   25.918473  -43.188124   11.531468
 C   26.424495  -44.194138   10.867413
 C   27.822606  -44.638540   10.936379
 C   28.627854  -44.154891   11.970063
 C   29.951735  -44.561396   12.068471
 C   30.483114  -45.444992   11.132090
 C   29.685719  -45.917957   10.092245
 C   28.359515  -45.515119    9.992963
 H   22.082814  -42.929688   11.118968
 H   19.751720  -42.297108   10.844831
 H   18.752018  -42.978005    9.692200
 H   19.486766  -44.731437    8.193959
 H   21.438046  -45.885647    7.203614
 H   23.700123  -45.569759    8.151446
 H   25.483784  -45.671408    9.661448
 H   28.191047  -43.458442   12.681288
 H   30.573178  -44.186330   12.877344
 H   31.519700  -45.761562   11.210794
 H   30.097399  -46.603522    9.355990
 H   27.748641  -45.873900    9.167307
