25 
4u43_ligand_xtb.xyz
 C   25.276822   22.593392   -9.091567
 C   26.342539   21.582290  -10.817928
 C   25.834250   27.390689   -4.647950
 C   27.050517   25.400189   -7.457275
 C   26.659128   26.225332   -6.368114
 C   25.564114   26.339035   -5.522130
 C   27.078111   27.906512   -4.962110
 C   26.325268   23.496521   -8.883098
 C   27.437874   22.424690  -10.701565
 C   27.436152   23.400423   -9.720034
 N   25.285182   21.668191  -10.026832
 N   26.196015   24.426602   -7.861944
 N   27.570507   27.206025   -5.993718
 N   28.748719   27.386186   -6.600782
 C   28.994292   26.574100   -7.579522
 N   28.216856   25.587072   -8.049554
 H   24.389909   22.624726   -8.468756
 H   26.301485   20.806569  -11.569986
 H   25.192716   27.743699   -3.864912
 H   24.677396   25.735394   -5.534870
 H   27.631129   28.711901   -4.524116
 H   28.281575   22.322791  -11.366221
 H   28.262878   24.078589   -9.589818
 H   25.331556   24.371593   -7.340404
 H   29.941814   26.706889   -8.080395
