35 
4u44_ligand_dft.xyz
 C   -3.616781   -0.334985    0.001924
 C   -3.806198   -1.598609   -0.568027
 C   -5.053411   -2.212075   -0.538306
 C   -2.293884    0.310399   -0.027787
 C   -1.039149   -0.335835    0.001461
 C   -0.066280    0.651433   -0.041914
 C    1.360375    0.725966   -0.034397
 C    1.196908    2.994521   -0.161752
 C   -4.711148    0.299686    0.600139
 C   -6.136204   -1.569076    0.055292
 C   -5.960438   -0.309707    0.622380
 N    1.980099    1.883468   -0.094521
 N   -0.100761    3.083590   -0.169644
 N   -0.719212    1.874628   -0.100921
 C   -2.056908    1.680629   -0.092418
 N    2.045610   -0.453236    0.035967
 C    3.420100   -0.711500    0.056759
 C    4.419418    0.262686    0.000381
 C    5.743580   -0.162779    0.029966
 N    6.142247   -1.433331    0.108485
 C    5.171941   -2.349344    0.161749
 C    3.818718   -2.051036    0.139675
 H   -2.972494   -2.094466   -1.057671
 H   -5.181948   -3.191864   -0.988839
 H   -0.880279   -1.403065    0.081022
 H    1.721526    3.942730   -0.215684
 H   -4.575793    1.270307    1.069344
 H   -7.111133   -2.046542    0.076029
 H   -6.797495    0.197306    1.093188
 H   -2.729495    2.521337   -0.162764
 H    1.464221   -1.276822    0.083020
 H    4.167783    1.310629   -0.063640
 H    6.536445    0.580996   -0.013196
 H    5.493571   -3.386602    0.226069
 H    3.085365   -2.852038    0.186805
