35 
4u44_ligand_aiqm1.xyz
 C  -13.470747   -1.127435   28.715682
 C  -13.656422   -0.926539   27.341644
 C  -13.239100    0.252552   26.731393
 C  -13.916115   -2.372034   29.355346
 C  -14.929474   -3.237816   28.889031
 C  -15.030239   -4.289834   29.790107
 C  -15.814558   -5.468396   29.935227
 C  -14.672727   -5.932031   31.844770
 C  -12.856068   -0.113029   29.460920
 C  -12.630036    1.253697   27.483298
 C  -12.440277    1.066319   28.849937
 N  -15.641163   -6.285643   30.951510
 N  -13.886132   -4.892685   31.842425
 N  -14.092444   -4.069474   30.781267
 C  -13.419016   -2.921567   30.537261
 N  -16.755226   -5.720551   28.978333
 C  -17.665968   -6.777143   28.847246
 C  -17.785302   -7.853524   29.732604
 C  -18.745518   -8.822715   29.452962
 N  -19.571583   -8.815606   28.402881
 C  -19.440789   -7.777905   27.569489
 C  -18.522351   -6.753465   27.743122
 H  -14.117019   -1.704343   26.744208
 H  -13.388221    0.386537   25.667706
 H  -15.520236   -3.083396   28.002236
 H  -14.529747   -6.603995   32.678095
 H  -12.713875   -0.242812   30.526441
 H  -12.306196    2.170235   27.009077
 H  -11.969483    1.839033   29.443707
 H  -12.641480   -2.615134   31.211649
 H  -16.801694   -5.027566   28.252025
 H  -17.157281   -7.935433   30.605226
 H  -18.851745   -9.663617   30.128280
 H  -20.105056   -7.760132   26.714005
 H  -18.474413   -5.942954   27.024293
