32 
4u45_ligand_xtb.xyz
 C  -21.525286    8.863445  -16.333663
 C  -22.449848    7.859021  -16.103682
 C  -22.581728    6.857781  -17.064577
 C  -26.282823    2.443361  -16.600802
 C  -24.353444    5.491457  -15.977219
 C  -25.146876    4.323690  -16.134383
 C  -25.294497    3.318199  -17.076783
 C  -26.719393    2.935667  -15.372721
 N  -20.756567    8.936648  -17.407324
 C  -21.771538    6.930886  -18.200815
 C  -20.884943    7.984676  -18.316406
 N  -23.465819    5.797272  -16.960684
 N  -26.038927    4.055688  -15.100519
 N  -26.163587    4.828306  -14.017532
 C  -25.386431    5.865537  -13.987058
 N  -24.484907    6.247889  -14.902722
 C  -26.761878    1.252302  -17.258630
 C  -27.731856    0.364012  -16.826901
 N  -27.833423   -0.587093  -17.775213
 N  -27.000672   -0.382031  -18.791306
 C  -26.346085    0.720439  -18.500283
 H  -21.392524    9.658895  -15.612434
 H  -23.055273    7.838813  -15.214722
 H  -24.757713    3.219851  -17.999692
 H  -27.458121    2.558818  -14.695998
 H  -21.837113    6.178404  -18.973480
 H  -20.242147    8.073335  -19.182390
 H  -23.450536    5.147706  -17.735761
 H  -25.475344    6.500088  -13.117868
 H  -28.331305    0.350543  -15.940201
 H  -28.444574   -1.388284  -17.782862
 H  -25.605822    1.100679  -19.174368
