41 
4uco_ligand_aiqm1.xyz
 O  111.979988   85.942301   28.722334
 C  111.526467   87.069159   28.860684
 N  111.638601   87.729557   30.050749
 C  110.869139   87.823275   27.756376
 C  110.720229   89.178409   27.809263
 C  110.386196   87.147214   26.573367
 N  110.521493   85.809861   26.446995
 N  109.755812   87.776508   25.594846
 C  109.583216   89.113611   25.681605
 N  108.888990   89.710614   24.680081
 C  108.691012   91.013432   24.759535
 C  107.862723   91.636726   23.636408
 C  107.661046   93.137832   23.836081
 C  106.493529   90.940613   23.592001
 C  108.588967   91.393350   22.303759
 C  110.093652   89.879523   26.758037
 C  109.898922   91.283726   26.699312
 N  109.174236   91.827910   25.728729
 C  110.444969   92.234944   27.660302
 N  109.953592   93.511050   27.599709
 C  110.570071   94.304449   28.513511
 C  111.496543   93.531789   29.187765
 C  111.425162   92.224504   28.649807
 H  111.965607   87.166685   30.816889
 H  111.010232   88.478649   30.275829
 H  111.081868   89.728309   28.662762
 H  110.262944   85.417919   25.558625
 H  111.148631   85.329460   27.073227
 H  107.067986   93.532370   23.008138
 H  107.129327   93.342840   24.767432
 H  108.616698   93.663394   23.856446
 H  105.909356   91.340930   22.759740
 H  106.608736   89.866823   23.450251
 H  105.934271   91.114372   24.515132
 H  107.985759   91.789668   21.483142
 H  109.558500   91.897540   22.288271
 H  108.745611   90.328055   22.136297
 H  109.266627   93.772360   26.908210
 H  112.051508   91.393967   28.929250
 H  110.309225   95.343703   28.619452
 H  112.152557   93.872601   29.970654
