21 
4ucs_ligand_xtb.xyz
 C   18.184687   94.018452   14.447912
 N   19.144974   93.850323   15.370166
 O   17.034681   93.640307   14.532972
 C   19.929052   95.722291   11.997668
 N   18.644424   94.701411   13.322754
 O   21.042924   96.912858   10.221545
 C   17.940129   95.049208   12.186022
 N   19.928579   95.145736   13.181169
 C   21.099072   96.336880   11.437973
 N   18.727685   95.684866   11.353421
 C   22.260201   97.397213    9.957508
 N   16.650301   94.747626   12.031522
 C   23.119754   97.146947   10.987228
 C   22.366696   96.454822   11.956546
 H   18.939257   93.371040   16.227957
 H   20.063668   94.214128   15.174059
 H   22.397806   97.895180    9.017790
 H   16.191173   94.248626   12.779302
 H   16.180827   95.020230   11.189412
 H   24.153285   97.420668   11.045232
 H   22.695324   96.088387   12.906344
