21 
4ucu_ligand_xtb.xyz
 O  110.748276   96.004561   22.815774
 C  111.015504   94.874863   23.125012
 O  110.913443   93.838266   22.297685
 C  111.501776   94.482559   24.491507
 N  111.741224   93.200822   24.640182
 C  112.179020   92.750762   25.823808
 C  112.393335   93.621826   26.928764
 C  112.854554   93.092257   28.148868
 C  113.092926   91.750915   28.265366
 C  112.885353   90.884116   27.184148
 C  112.435996   91.357536   25.974898
 O  112.220068   90.565181   24.902818
 C  112.124900   94.994349   26.731332
 C  111.678574   95.432169   25.514590
 H  111.188296   93.033367   22.787771
 H  113.014661   93.759423   28.982186
 H  113.446669   91.340320   29.198990
 H  113.082099   89.827063   27.304518
 H  112.426245   89.647107   25.120026
 H  112.277845   95.681375   27.551516
 H  111.458235   96.467164   25.308443
