72 
4udb_ligand_aiqm1.xyz
 C   -1.338319   -0.688956    2.943426
 C   -0.429975   -0.327052    1.754942
 C   -0.607791    1.121581    1.312387
 C   -1.966871    1.365416    0.645380
 C   -2.246057    0.364562   -0.484523
 C   -2.041273   -1.109620   -0.073621
 C   -0.649045   -1.234159    0.529695
 C   -0.125568   -2.596885    0.999791
 C    1.179272   -2.210357    1.711256
 C    1.035011   -0.706760    2.109755
 O    1.966101   -0.048660    1.257373
 C    2.961385   -1.019900    0.975489
 O    2.253775   -2.209928    0.771087
 C    3.796342   -0.651373   -0.233433
 C    2.964257   -0.510605   -1.507461
 C    3.861807   -0.174424   -2.697412
 C    4.669081    1.094616   -2.433550
 C    5.494364    0.954063   -1.156785
 C    4.597160    0.623017    0.032476
 C    1.446088   -0.437593    3.559941
 O    1.271248   -1.239061    4.458092
 C    2.090162    0.891302    3.874146
 O    2.302652    1.055552    5.247207
 C   -2.138436   -2.022877   -1.303392
 C   -3.405310   -1.795235   -2.126646
 C   -3.561964   -0.331711   -2.445508
 C   -3.601256    0.126914   -3.707934
 C   -3.702555    1.556052   -4.025352
 O   -3.722821    1.966620   -5.177041
 C   -3.782206    2.480231   -2.879806
 C   -3.730673    2.038213   -1.618661
 C   -3.601958    0.581622   -1.223233
 C   -4.861426    0.231586   -0.402444
 O   -3.039521    1.331337    1.583633
 H   -2.385226   -0.711697    2.660904
 H   -1.233437    0.062099    3.730756
 H   -1.077034   -1.655164    3.373206
 H    0.171376    1.370589    0.591468
 H   -0.494485    1.803241    2.162733
 H   -1.921372    2.371402    0.211902
 H   -1.461049    0.579984   -1.226653
 H   -2.805769   -1.381842    0.661920
 H    0.059956   -0.890794   -0.242111
 H    0.087826   -3.282647    0.180945
 H   -0.820398   -3.072750    1.693863
 H    1.429416   -2.841683    2.563203
 H    3.586731   -1.121402    1.880643
 H    4.496990   -1.482248   -0.367573
 H    2.408062   -1.432561   -1.692057
 H    2.231052    0.291216   -1.366619
 H    3.260592   -0.061572   -3.601863
 H    4.550998   -1.007171   -2.875746
 H    5.317547    1.318465   -3.282747
 H    3.982218    1.940414   -2.324261
 H    6.055828    1.869456   -0.960287
 H    6.228454    0.151748   -1.289460
 H    5.193466    0.511956    0.942553
 H    3.896751    1.448061    0.201068
 H    3.030048    0.961761    3.319573
 H    1.446497    1.687737    3.488228
 H    2.071631    0.208730    5.650751
 H   -2.078821   -3.071238   -1.001323
 H   -1.266121   -1.822465   -1.935361
 H   -3.365219   -2.374095   -3.049105
 H   -4.279128   -2.142324   -1.573451
 H   -3.552615   -0.554213   -4.548336
 H   -3.897616    3.530947   -3.105684
 H   -3.824241    2.732709   -0.791280
 H   -4.836164   -0.787237   -0.015399
 H   -4.971115    0.912822    0.437159
 H   -5.734856    0.328523   -1.052897
 H   -2.837050    1.956017    2.282463
