33 
4ufy_ligand_dft.xyz
 C   -2.263340   -1.069248   -0.417568
 C   -3.634308   -1.267719   -0.418010
 C   -4.512407   -0.263075    0.004921
 C   -6.001264   -0.496076   -0.003807
 C   -3.968547    0.946125    0.435626
 C   -2.593179    1.155434    0.435558
 C   -1.725335    0.152035    0.001744
 C   -0.253874    0.327125   -0.014684
 N    0.518249   -0.705575    0.054852
 C    1.889497   -0.498965    0.037826
 C    2.731832   -1.633408    0.106524
 C    2.130318   -3.009927    0.184022
 C    4.102890   -1.432604    0.099964
 C    4.667280   -0.150563    0.027504
 C    3.849064    0.958058   -0.041313
 C    2.460255    0.784891   -0.034879
 C    1.580718    1.952353   -0.127177
 O    1.925564    3.116361   -0.223953
 N    0.228243    1.611667   -0.110608
 H   -1.585434   -1.852024   -0.739979
 H   -4.036062   -2.220332   -0.754386
 H   -6.357832   -0.716342   -1.016145
 H   -6.268741   -1.349795    0.628618
 H   -6.546645    0.378266    0.362204
 H   -4.627023    1.736571    0.785590
 H   -2.210698    2.098974    0.816283
 H    1.468172   -3.099779    1.050608
 H    1.519975   -3.221380   -0.700049
 H    2.910407   -3.773035    0.257745
 H    4.759290   -2.297726    0.153311
 H    5.746737   -0.036532    0.025781
 H    4.246872    1.965533   -0.101680
 H   -0.406576    2.387458   -0.243481
