33 
4ufy_ligand_xtb.xyz
 C  -39.675177  -12.361766   10.056427
 C  -39.714349  -12.090862    8.706076
 C  -39.208862  -10.895255    8.201216
 C  -39.256353  -10.616973    6.731496
 C  -38.671314   -9.976721    9.093094
 C  -38.623748  -10.241797   10.449108
 C  -39.119782  -11.443483   10.949430
 C  -39.099048  -11.776736   12.376228
 N  -39.916695  -12.668131   12.817762
 C  -39.906912  -12.977963   14.150193
 C  -40.808692  -13.954311   14.618631
 C  -41.722374  -14.635056   13.650591
 C  -40.810244  -14.260570   15.964114
 C  -39.946113  -13.632644   16.859286
 C  -39.059776  -12.681093   16.411171
 C  -39.034193  -12.346576   15.056831
 C  -38.095222  -11.348855   14.555733
 O  -37.273482  -10.736054   15.205666
 N  -38.203712  -11.133375   13.188049
 H  -40.067183  -13.285190   10.451584
 H  -40.141936  -12.813027    8.025586
 H  -38.702372  -11.379198    6.184936
 H  -40.285812  -10.638335    6.376192
 H  -38.828851   -9.644420    6.502268
 H  -38.286156   -9.037164    8.723432
 H  -38.222934   -9.487278   11.111265
 H  -42.136108  -13.907554   12.957008
 H  -41.162642  -15.363980   13.065266
 H  -42.527077  -15.148825   14.170068
 H  -41.500423  -15.006579   16.332745
 H  -39.976407  -13.897429   17.905563
 H  -38.375828  -12.178203   17.077561
 H  -37.549321  -10.468401   12.794223
