33 
4ufy_ligand_aiqm1.xyz
 C  -39.635292  -12.407850    9.984791
 C  -39.644590  -12.104304    8.631812
 C  -39.178108  -10.869350    8.165500
 C  -39.191265  -10.544847    6.696216
 C  -38.709541   -9.946897    9.103569
 C  -38.690471  -10.247573   10.461783
 C  -39.147870  -11.486496   10.915015
 C  -39.144392  -11.838241   12.351948
 N  -39.967723  -12.722066   12.801455
 C  -39.927708  -13.001886   14.166908
 C  -40.831458  -13.959841   14.674511
 C  -41.796679  -14.645370   13.749079
 C  -40.801635  -14.240800   16.032288
 C  -39.905372  -13.603049   16.903907
 C  -39.021128  -12.667480   16.408697
 C  -39.032275  -12.365939   15.040695
 C  -38.084238  -11.383281   14.512724
 O  -37.243279  -10.781274   15.154585
 N  -38.223640  -11.184185   13.145134
 H  -40.009663  -13.358039   10.341154
 H  -40.024347  -12.833173    7.925465
 H  -38.583960  -11.256907    6.135340
 H  -40.204918  -10.596259    6.296124
 H  -38.801013   -9.543205    6.515184
 H  -38.359029   -8.977175    8.770228
 H  -38.351411   -9.493351   11.162129
 H  -42.449972  -13.917104   13.266937
 H  -41.263292  -15.166104   12.952756
 H  -42.408152  -15.363867   14.294752
 H  -41.494349  -14.976002   16.427913
 H  -39.911060  -13.847272   17.958373
 H  -38.312379  -12.153498   17.042360
 H  -37.558893  -10.551115   12.729469
