34 
4ui5_ligand_xtb.xyz
 C  -58.261211  -46.199851   15.485623
 O  -57.261982  -45.288924   15.871521
 C  -56.634691  -44.568987   14.912298
 C  -56.899631  -44.643064   13.556069
 C  -56.199843  -43.855032   12.643536
 C  -55.228800  -42.980901   13.068432
 C  -54.941481  -42.887656   14.431198
 C  -55.631662  -43.674988   15.368737
 N  -55.372182  -43.617607   16.705861
 C  -54.465029  -42.809368   17.133919
 N  -53.757736  -41.992234   16.290658
 C  -53.923252  -41.959173   14.914122
 O  -53.257182  -41.203293   14.236925
 C  -54.189733  -42.758131   18.571154
 C  -55.124479  -43.320302   19.444022
 C  -54.915710  -43.296050   20.805469
 C  -53.768746  -42.717243   21.343784
 C  -53.557665  -42.696467   22.825336
 C  -52.833921  -42.172384   20.473652
 C  -53.035768  -42.189175   19.105980
 H  -59.098606  -45.695856   14.991415
 H  -57.865262  -46.978044   14.824650
 H  -58.612548  -46.658102   16.408719
 H  -57.656023  -45.315804   13.182907
 H  -56.432907  -43.940031   11.592845
 H  -54.676851  -42.359531   12.381023
 H  -53.077495  -41.342197   16.665042
 H  -56.007191  -43.770793   19.019506
 H  -55.649172  -43.730840   21.469124
 H  -54.373396  -42.166641   23.315656
 H  -53.540162  -43.712287   23.218278
 H  -52.621208  -42.207949   23.081593
 H  -51.931144  -41.729895   20.870060
 H  -52.268332  -41.775701   18.466886
