34 
4ui5_ligand_aiqm1.xyz
 C  -58.246172  -46.276925   15.320511
 O  -57.284382  -45.356375   15.794113
 C  -56.647616  -44.602587   14.866043
 C  -56.889330  -44.662020   13.501327
 C  -56.178320  -43.832104   12.615161
 C  -55.235568  -42.948268   13.086499
 C  -54.986962  -42.886317   14.465261
 C  -55.676468  -43.701660   15.370685
 N  -55.449610  -43.675275   16.741864
 C  -54.558055  -42.854669   17.176860
 N  -53.850880  -41.997888   16.353023
 C  -53.994271  -41.935682   14.976312
 O  -53.345643  -41.153392   14.306055
 C  -54.252083  -42.786905   18.622758
 C  -55.208469  -43.212322   19.548388
 C  -54.944528  -43.153922   20.908228
 C  -53.717711  -42.679680   21.387304
 C  -53.437270  -42.619757   22.864482
 C  -52.760642  -42.273946   20.454909
 C  -53.020388  -42.323462   19.089150
 H  -59.066034  -45.768111   14.806864
 H  -57.797540  -47.009896   14.645307
 H  -58.630425  -46.783980   16.199413
 H  -57.625350  -45.346453   13.104586
 H  -56.383115  -43.896125   11.554254
 H  -54.676604  -42.296078   12.432409
 H  -53.213195  -41.327454   16.751684
 H  -56.151634  -43.594213   19.185289
 H  -55.699165  -43.487174   21.611003
 H  -54.159434  -41.978097   23.371778
 H  -53.511135  -43.610979   23.314359
 H  -52.437344  -42.229608   23.055663
 H  -51.795914  -41.919545   20.798878
 H  -52.239744  -42.033633   18.395582
