56 
4umq_ligand_ani-2x.xyz
 C   34.446284   19.827773   19.616095
 O   33.495425   19.044330   18.929750
 C   32.362034   19.659843   18.506982
 C   32.098127   21.007792   18.722086
 C   30.889818   21.529454   18.252147
 O   30.658298   22.849721   18.487840
 C   29.974619   20.729472   17.582829
 C   30.264632   19.376051   17.353375
 N   29.295379   18.614188   16.696455
 C   29.425974   17.414029   15.999632
 C   30.588589   17.039599   15.327743
 C   30.608908   15.842771   14.632246
 C   29.510116   14.980634   14.564660
 C   29.745413   13.719973   13.766728
 O   30.832091   13.538073   13.231074
 N   28.708050   12.836835   13.691296
 C   28.650194   11.609834   13.007789
 C   27.424181   10.936911   13.014478
 C   27.288798    9.716407   12.364615
 C   28.375414    9.153199   11.702679
 C   29.592918    9.826167   11.699922
 C   29.744035   11.049527   12.345149
 C   28.325521   15.381783   15.226733
 O   27.223312   14.563950   15.168406
 C   25.972158   15.006742   15.693356
 C   25.849405   14.713876   17.187701
 C   24.565871   15.257782   17.827496
 N   23.320571   14.624590   17.263417
 C   28.297170   16.586718   15.927524
 C   31.457712   18.838043   17.825205
 H   34.821595   20.645961   18.987920
 H   34.029669   20.246041   20.541498
 H   35.269254   19.155210   19.862537
 H   32.785294   21.665010   19.242157
 H   29.793235   23.085798   18.128493
 H   29.036102   21.147962   17.222436
 H   28.349448   18.962382   16.768481
 H   31.461317   17.684279   15.323818
 H   31.509072   15.536814   14.110350
 H   27.863632   13.119280   14.166679
 H   26.573570   11.377151   13.531750
 H   26.329434    9.205516   12.377791
 H   28.275917    8.198897   11.193065
 H   30.449647    9.397348   11.185346
 H   30.690179   11.574067   12.340389
 H   25.227886   14.442964   15.121179
 H   25.820613   16.067952   15.464204
 H   26.703566   15.146810   17.718373
 H   25.918518   13.629796   17.340477
 H   24.498717   16.332952   17.662049
 H   24.580076   15.082001   18.901243
 H   22.499061   14.869178   17.835210
 H   23.175829   14.969533   16.300278
 H   23.439106   13.596686   17.247270
 H   27.405233   16.901047   16.457733
 H   31.702911   17.790298   17.697866
