46 
4umu_ligand_ani-2x.xyz
 C   37.477882   19.999371   24.696386
 C   36.518711   20.145349   23.533048
 O   36.207843   21.526778   23.394003
 C   35.399120   21.906877   22.354786
 C   34.768858   20.993163   21.516961
 C   33.932114   21.458914   20.495857
 O   33.351325   20.493307   19.728328
 C   32.488367   20.916863   18.685670
 C   31.970082   19.736398   17.993596
 C   31.540221   18.766994   17.417504
 C   31.025350   17.611255   16.733163
 C   29.618190   17.465787   16.551568
 C   29.106446   16.376465   15.904272
 C   29.967652   15.367003   15.399184
 C   29.508699   14.213050   14.719377
 C   30.420292   13.296934   14.270143
 N   31.765667   13.416357   14.432490
 C   32.202209   14.478414   15.059141
 C   31.362361   15.504894   15.575399
 C   31.873996   16.640461   16.248617
 C   33.737521   22.824757   20.313939
 C   34.396987   23.717290   21.160652
 C   35.233188   23.297124   22.181264
 C   35.980080   24.286671   23.060442
 N   35.851171   23.952529   24.519603
 H   38.400047   20.561666   24.519994
 H   37.020413   20.357775   25.624765
 H   37.739291   18.945302   24.832554
 H   35.596427   19.580527   23.720372
 H   36.971461   19.773184   22.604897
 H   34.899167   19.920188   21.628867
 H   33.034131   21.554927   17.976581
 H   31.654889   21.503297   19.097001
 H   28.955076   18.235232   16.935992
 H   28.033911   16.268676   15.767682
 H   28.444609   14.063318   14.559952
 H   30.095631   12.401069   13.744623
 H   33.282541   14.567036   15.185406
 H   32.947698   16.743126   16.382146
 H   33.091922   23.207259   19.531670
 H   34.246233   24.785237   21.013218
 H   35.603678   25.294793   22.891619
 H   37.044575   24.283500   22.819323
 H   36.518776   24.496899   25.084086
 H   34.877956   24.114924   24.831121
 H   36.071236   22.942159   24.585135
