46 
4umu_ligand_aiqm1.xyz
 C   37.185152   19.976489   24.889969
 C   36.300123   20.094541   23.677266
 O   36.149929   21.511417   23.414427
 C   35.415560   21.888404   22.323585
 C   34.729498   21.001233   21.514380
 C   33.971664   21.477457   20.433353
 O   33.348904   20.538521   19.706187
 C   32.579542   20.973254   18.563625
 C   32.039575   19.783703   17.937159
 C   31.610110   18.770947   17.432530
 C   31.090452   17.586942   16.812767
 C   29.761971   17.160804   17.111220
 C   29.248586   16.028895   16.535047
 C   30.031868   15.261751   15.632251
 C   29.567253   14.083764   15.001578
 C   30.397859   13.410026   14.144695
 N   31.670770   13.803400   13.849234
 C   32.110095   14.895598   14.428905
 C   31.348614   15.682164   15.335388
 C   31.866219   16.855660   15.937573
 C   33.897596   22.855641   20.182964
 C   34.590761   23.728508   21.016136
 C   35.360378   23.274417   22.085617
 C   36.137818   24.208424   22.944608
 N   35.748580   23.954718   24.419541
 H   38.170653   20.401015   24.704024
 H   36.739353   20.469891   25.755754
 H   37.309711   18.924623   25.131595
 H   35.313133   19.665070   23.857153
 H   36.749682   19.624782   22.803578
 H   34.756428   19.933852   21.671151
 H   33.228065   21.516362   17.870666
 H   31.776090   21.638433   18.893784
 H   29.169513   17.749193   17.799340
 H   28.239552   15.711806   16.764425
 H   28.565766   13.720963   15.194760
 H   30.065834   12.507444   13.649959
 H   33.123998   15.202206   14.187062
 H   32.875661   17.172155   15.704289
 H   33.324687   23.249745   19.360172
 H   34.546664   24.793879   20.821695
 H   35.934863   25.245171   22.704404
 H   37.210646   24.030729   22.887704
 H   36.327053   24.488708   25.063840
 H   34.773272   24.204332   24.571050
 H   35.874496   22.936063   24.555990
