29 
4unp_ligand_ani-2x.xyz
 C   41.912107   32.571136   56.077106
 C   43.056884   31.777859   58.046737
 C   42.540347   31.533154   56.766602
 C   41.810973   33.810119   56.685014
 C   42.910257   33.082380   58.575088
 C   43.699821   30.676992   58.724333
 C   43.809658   29.454411   58.164888
 C   43.278867   29.173591   56.827495
 C   43.444896   33.419281   59.940770
 C   43.281277   35.818783   54.893278
 C   41.138269   34.964809   55.981073
 C   41.838711   35.369385   54.675224
 N   42.309370   34.057929   57.914936
 N   42.671137   30.272553   56.223533
 O   43.338530   28.098144   56.254638
 H   41.505881   32.408940   55.080505
 H   44.108061   30.844283   59.719929
 H   44.292258   28.628726   58.674379
 H   42.980308   32.794659   60.712920
 H   44.527698   33.255326   59.993802
 H   43.235588   34.468565   60.163049
 H   43.322773   36.694615   55.551829
 H   43.876077   35.026604   55.363510
 H   43.760945   36.086729   53.946248
 H   41.121172   35.806104   56.680425
 H   40.094316   34.699298   55.761554
 H   41.812814   34.524128   53.974963
 H   41.262868   36.174720   54.203284
 H   42.300836   30.086678   55.298988
