29 
4unp_ligand_aiqm1.xyz
 C   41.798382   32.462298   56.059716
 C   43.057275   31.770209   57.996042
 C   42.459716   31.457518   56.768358
 C   41.752132   33.738316   56.598123
 C   42.955071   33.094257   58.462462
 C   43.737611   30.708523   58.699423
 C   43.801392   29.454672   58.201318
 C   43.181639   29.114286   56.921791
 C   43.575293   33.493658   59.772473
 C   43.272006   35.980525   55.173293
 C   41.089951   34.859088   55.843309
 C   41.958529   35.376074   54.687840
 N   42.320041   34.049192   57.785820
 N   42.542183   30.173411   56.290389
 O   43.200334   28.006567   56.414094
 H   41.336812   32.245382   55.102841
 H   44.202453   30.939772   59.648187
 H   44.305058   28.648609   58.712913
 H   43.154941   32.918459   60.599186
 H   44.652921   33.321323   59.765343
 H   43.384636   34.551029   59.940566
 H   43.082521   36.815268   55.849341
 H   43.863518   35.244140   55.721817
 H   43.870734   36.347844   54.338061
 H   40.897247   35.674680   56.541970
 H   40.131631   34.510977   55.448772
 H   42.158141   34.554882   53.991150
 H   41.387390   36.124341   54.133632
 H   42.113143   29.944599   55.407871
