47 
4unr_ligand_dft.xyz
 C   55.459984   13.910492   -8.146356
 C   48.385434   17.223770   -7.481401
 C   47.581549   16.555018   -6.568640
 C   49.673674   16.769485   -7.724102
 C   52.955633   10.987776   -7.749324
 C   54.593462   11.691915   -6.121131
 C   53.305707    9.662163   -7.535300
 C   54.937586   10.366387   -5.897756
 C   46.620407   13.477747   -4.949450
 C   46.498386   15.357526   -3.810666
 C   48.041341   15.419966   -5.890601
 C   47.123727   14.764515   -4.934327
 C   53.596583   12.011304   -7.045710
 C   50.163769   15.655328   -7.038123
 C   54.295999    9.348078   -6.602613
 C   49.347495   14.964481   -6.123287
 C   54.129400   14.314905   -7.814025
 C   53.210944   13.429524   -7.285681
 C   51.536095   15.157922   -7.257084
 C   51.886320   13.858433   -6.975868
 C   53.794084   15.710099   -8.073735
 C   54.703134    7.944254   -6.324699
 C   49.957943   13.787651   -5.399103
 C   50.849980   12.968531   -6.330488
 N   56.537321   13.573206   -8.410480
 N   45.780816   13.383400   -3.894305
 N   45.689457   14.515888   -3.182857
 N   52.463556   16.012334   -7.770935
 O   54.538688   16.571115   -8.506132
 O   55.536638    7.616852   -5.512047
 O   54.039576    7.044889   -7.077440
 H   48.003425   18.087448   -8.015797
 H   46.566940   16.896135   -6.385707
 H   50.275336   17.270022   -8.477530
 H   52.187801   11.235564   -8.476394
 H   52.814891    8.870531   -8.089857
 H   55.100648   12.484238   -5.579972
 H   55.708419   10.104052   -5.181287
 H   46.782909   12.653535   -5.628731
 H   45.236278   12.585128   -3.609689
 H   46.625528   16.365441   -3.438929
 H   50.566040   14.166046   -4.564923
 H   49.186739   13.154921   -4.958842
 H   52.233537   16.988217   -7.906718
 H   50.232868   12.475282   -7.095363
 H   51.339546   12.173211   -5.762916
 H   54.384407    6.175277   -6.820678
