20 
4ura_ligand_ani-2x.xyz
 O  -45.581506  -55.881009    1.068758
 C  -44.624841  -55.167505    0.879354
 O  -44.606456  -54.220174   -0.075977
 C  -43.351713  -55.224929    1.653269
 C  -42.274402  -54.383799    1.392595
 C  -43.244255  -56.158385    2.673079
 C  -42.058544  -56.222882    3.406648
 N  -41.016035  -55.426569    3.158891
 C  -41.134516  -54.532816    2.178345
 C  -41.902066  -57.190753    4.502081
 N  -40.724148  -57.385768    5.098048
 N  -40.996683  -58.309418    5.996171
 N  -42.237557  -58.742982    6.059417
 C  -42.844956  -58.042290    5.109338
 H  -45.472736  -54.269973   -0.512278
 H  -42.324202  -53.641386    0.603941
 H  -44.082202  -56.819088    2.872080
 H  -40.266207  -53.899827    2.010023
 H  -43.899714  -58.169122    4.918829
 H  -40.281258  -58.664325    6.612388
