54 
4urk_ligand_aiqm1.xyz
 C    0.929208    3.207447    1.117938
 C   -0.384072    3.240705    1.459498
 N   -1.282014    2.302006    0.993183
 C   -0.899820    1.295930    0.148259
 N   -1.725798    0.379331   -0.310524
 C   -3.026151    0.430165    0.067268
 C   -3.509821    1.412806    0.924586
 C   -2.668126    2.418993    1.437368
 O   -2.963907    3.332447    2.188065
 N   -3.827130   -0.528327   -0.491332
 C   -5.066432   -0.944761    0.157607
 C   -4.779329   -2.092892    1.123188
 O   -4.174399   -3.179624    0.441575
 C   -2.958292   -2.788228   -0.184261
 C   -3.209690   -1.658819   -1.177855
 C    0.486737    1.230476   -0.240669
 C    1.356287    2.159886    0.243630
 C    0.891774    0.115064   -1.201138
 C    0.621545    0.531155   -2.644035
 C    1.908435    4.223694    1.634292
 N    2.282833   -0.245218   -1.056331
 C    2.790914   -0.945155   -0.004666
 C    4.670361   -1.997016    1.147872
 C    4.174063   -1.257221    0.061983
 C    3.837226   -2.425802    2.163995
 C    1.954553   -1.383155    1.048647
 C    2.476605   -2.110772    2.104216
 C    5.092553   -0.812632   -0.992208
 O    6.364982   -1.219205   -0.794888
 O    4.806123   -0.139235   -1.966092
 H   -0.830097    3.977982    2.109646
 H   -4.541349    1.481519    1.225381
 H   -5.754321   -1.286364   -0.620360
 H   -5.535465   -0.114062    0.676573
 H   -5.700741   -2.478055    1.558120
 H   -4.121462   -1.739045    1.927664
 H   -2.576312   -3.676964   -0.685345
 H   -2.232837   -2.462042    0.573023
 H   -2.284051   -1.331374   -1.641891
 H   -3.900666   -2.003704   -1.952070
 H    2.405314    2.114586   -0.024863
 H    0.274542   -0.756811   -0.971524
 H    1.216655    1.410872   -2.903461
 H    0.875560   -0.283247   -3.324219
 H   -0.434549    0.773410   -2.763434
 H    2.392090    4.748957    0.809993
 H    1.409556    4.958022    2.265009
 H    2.692171    3.742519    2.220489
 H    2.938359    0.053553   -1.760553
 H    5.727378   -2.226703    1.174150
 H    4.232331   -2.994509    2.992499
 H    0.899681   -1.151792    1.023703
 H    1.813511   -2.437699    2.896625
 H    6.865182   -0.871090   -1.541527
