54 
4urk_ligand_xtb.xyz
 C    1.010283    3.072103    1.113743
 C   -0.293718    3.120968    1.492584
 N   -1.207561    2.217508    1.053680
 C   -0.866829    1.201095    0.198771
 N   -1.724270    0.315625   -0.238353
 C   -3.019927    0.389876    0.149560
 C   -3.451844    1.385108    1.011734
 C   -2.572508    2.359575    1.517859
 O   -2.830696    3.274722    2.279873
 N   -3.839866   -0.534960   -0.415585
 C   -5.169862   -0.839450    0.060064
 C   -5.121026   -2.110070    0.921378
 O   -4.581275   -3.191955    0.197613
 C   -3.283540   -2.898969   -0.273145
 C   -3.286183   -1.647962   -1.159514
 C    0.499841    1.117613   -0.215053
 C    1.400853    2.033979    0.233323
 C    0.879221    0.000302   -1.164766
 C    0.589030    0.427841   -2.602958
 C    2.015138    4.066983    1.598693
 N    2.268662   -0.360741   -1.056650
 C    2.852864   -0.907292    0.029935
 C    4.839819   -1.722386    1.183337
 C    4.257738   -1.115380    0.064177
 C    4.079960   -2.114261    2.258855
 C    2.102555   -1.306522    1.151027
 C    2.704211   -1.897349    2.235264
 C    5.107505   -0.684460   -1.038250
 O    6.413270   -0.963169   -0.872258
 O    4.734983   -0.104255   -2.046065
 H   -0.702453    3.866905    2.160123
 H   -4.473885    1.474161    1.335865
 H   -5.806820   -1.023637   -0.812297
 H   -5.585645   -0.013286    0.630602
 H   -6.124023   -2.415443    1.223148
 H   -4.512827   -1.914613    1.818611
 H   -2.959417   -3.776395   -0.834408
 H   -2.602990   -2.736819    0.577112
 H   -2.275696   -1.393369   -1.471913
 H   -3.918559   -1.823649   -2.035767
 H    2.433506    1.973409   -0.077457
 H    0.248974   -0.866520   -0.927381
 H    1.180040    1.303860   -2.860655
 H    0.836081   -0.378547   -3.288507
 H   -0.464788    0.670171   -2.704951
 H    2.458184    4.596553    0.756422
 H    1.552553    4.790282    2.263891
 H    2.817711    3.559792    2.132476
 H    2.900937   -0.045991   -1.784847
 H    5.907746   -1.873174    1.185472
 H    4.542399   -2.579844    3.114912
 H    1.037093   -1.140512    1.157358
 H    2.100841   -2.194286    3.080893
 H    6.903912   -0.643163   -1.644778
