80 
4urn_ligand_aiqm1.xyz
 C    9.145871   -0.554533    0.697961
 O    7.737540   -0.666374    0.679646
 N    8.369552    3.491276    2.892340
 C    7.278757    2.845822    2.388975
 O    6.154336    2.960241    2.809176
 O    7.618064    2.098587    1.315829
 C    7.096061    0.282456   -0.148763
 C    6.516421    1.422108    0.675725
 C    5.775387    2.405155   -0.217960
 O    6.657867    3.031147   -1.132542
 C    4.737779    1.676286   -1.058037
 O    5.226159    0.536321   -1.695476
 C    5.973863   -0.441381   -0.926539
 C    6.597677   -1.349993   -1.974234
 C    5.055214   -1.250670   -0.011524
 O    3.668337    1.393941   -0.176009
 C    2.444010    1.060041   -0.685368
 C    1.415137    0.971046    0.258059
 C    1.633867    1.233079    1.718636
 C    0.152471    0.624466   -0.219804
 C   -0.103012    0.379844   -1.568088
 C    0.949545    0.481303   -2.479161
 C    2.220862    0.817553   -2.052732
 O   -0.846196    0.537407    0.713803
 C   -2.118578    0.211393    0.367163
 O   -2.959632    0.166482    1.238699
 C   -2.415258   -0.064670   -1.031473
 C   -1.443693    0.022562   -1.988580
 O   -1.589078   -0.184893   -3.292493
 N   -3.788375   -0.380335   -1.168343
 C   -4.502704   -0.783365   -2.226358
 O   -4.009682   -0.961216   -3.350529
 C   -5.948226   -1.027915   -1.993964
 C   -6.639288   -0.565193   -0.869383
 C   -7.995257   -0.806376   -0.685388
 C   -8.663472   -1.547011   -1.670291
 O   -9.990600   -1.793158   -1.465851
 C   -7.997644   -2.002734   -2.805609
 C   -6.647029   -1.739322   -2.967254
 C   -8.724881   -0.329838    0.549563
 C   -8.832581   -1.427572    1.573579
 C   -8.339263   -1.433065    2.818175
 C   -8.533514   -2.631414    3.711059
 C   -7.577460   -0.302134    3.453661
 H    9.550547   -0.670346   -0.312468
 H    9.517452   -1.358774    1.328086
 H    9.468925    0.404111    1.107820
 H    9.282567    3.149312    2.655299
 H    8.245034    3.888585    3.806316
 H    7.798377    0.702176   -0.878886
 H    5.839006    1.044401    1.439740
 H    5.273171    3.149556    0.402650
 H    7.380313    3.397952   -0.617192
 H    4.402764    2.333191   -1.859231
 H    7.235372   -2.084323   -1.482604
 H    5.815495   -1.870334   -2.526458
 H    7.194923   -0.767138   -2.677766
 H    5.623319   -2.057723    0.448713
 H    4.244163   -1.677962   -0.602789
 H    4.615248   -0.648525    0.783236
 H    2.671286    1.483013    1.917356
 H    1.006319    2.056489    2.058234
 H    1.362980    0.359925    2.311942
 H    0.744834    0.283944   -3.520924
 H    3.030130    0.871383   -2.764807
 H   -2.515535   -0.501325   -3.463637
 H   -4.245804   -0.343599   -0.271522
 H   -6.133920    0.016749   -0.105957
 H  -10.340366   -2.277207   -2.216916
 H   -8.537296   -2.563250   -3.562939
 H   -6.115610   -2.076935   -3.844283
 H   -9.732136   -0.018792    0.260642
 H   -8.220481    0.542368    0.966941
 H   -9.358998   -2.316127    1.229204
 H   -7.568216   -3.029122    4.031756
 H   -9.084092   -3.423203    3.200215
 H   -9.080316   -2.353924    4.615450
 H   -6.577099   -0.634344    3.738237
 H   -8.076853    0.019817    4.370820
 H   -7.475058    0.564827    2.802630
