80 
4urn_ligand_ani-2x.xyz
 C    8.684073   -0.961295    0.950319
 O    7.294001   -0.871179    0.712588
 N    8.638318    3.131441    2.937209
 C    7.467128    2.736964    2.373473
 O    6.364111    3.067764    2.749171
 O    7.703152    1.933722    1.296212
 C    6.893844    0.180630   -0.131274
 C    6.510308    1.428519    0.662800
 C    5.977332    2.510523   -0.275158
 O    6.978934    2.919924   -1.180576
 C    4.831536    1.960480   -1.112320
 O    5.161548    0.760218   -1.756530
 C    5.705841   -0.329929   -0.979069
 C    6.226669   -1.295618   -2.038982
 C    4.629607   -1.021537   -0.136431
 O    3.717620    1.842971   -0.259377
 C    2.510814    1.430827   -0.755614
 C    1.534329    1.142246    0.205059
 C    1.789107    1.215910    1.687829
 C    0.286155    0.741370   -0.278351
 C    0.000352    0.620817   -1.643303
 C    1.018483    0.899997   -2.566919
 C    2.268630    1.290608   -2.131624
 O   -0.665204    0.460551    0.660687
 C   -1.926387    0.084626    0.342784
 O   -2.713126   -0.124333    1.239362
 C   -2.267217   -0.046610   -1.081869
 C   -1.328975    0.201197   -2.052341
 O   -1.507435    0.106282   -3.365074
 N   -3.625266   -0.410542   -1.219940
 C   -4.364184   -0.767756   -2.302747
 O   -3.926035   -0.840636   -3.455406
 C   -5.785474   -1.120472   -2.023723
 C   -6.501593   -0.640461   -0.923348
 C   -7.825906   -0.990731   -0.702768
 C   -8.441423   -1.851185   -1.621917
 O   -9.741986   -2.182917   -1.379311
 C   -7.753422   -2.323119   -2.737648
 C   -6.433046   -1.948640   -2.939535
 C   -8.573644   -0.503609    0.518676
 C   -8.652414   -1.549221    1.604654
 C   -8.458745   -1.376762    2.914017
 C   -8.569986   -2.533669    3.871654
 C   -8.130911   -0.056491    3.555805
 H    9.240938   -1.087948    0.009363
 H    8.834687   -1.852578    1.565282
 H    9.067085   -0.083367    1.482032
 H    9.508236    2.698570    2.673997
 H    8.577564    3.613967    3.818602
 H    7.704166    0.465849   -0.819831
 H    5.782514    1.184563    1.438361
 H    5.606932    3.350556    0.330353
 H    7.757764    3.136032   -0.651590
 H    4.590447    2.671176   -1.909994
 H    6.738050   -2.141742   -1.569378
 H    5.389432   -1.666477   -2.637392
 H    6.922131   -0.778076   -2.707228
 H    5.041070   -1.931030    0.308343
 H    3.787700   -1.289497   -0.782646
 H    4.251753   -0.380210    0.666977
 H    2.788961    1.609306    1.888348
 H    1.060210    1.859023    2.193126
 H    1.708514    0.224680    2.151795
 H    0.808130    0.799735   -3.625077
 H    3.054150    1.467936   -2.859379
 H   -2.413820   -0.256305   -3.556362
 H   -4.054346   -0.516349   -0.305627
 H   -6.033155    0.053347   -0.226865
 H  -10.047009   -2.790845   -2.063584
 H   -8.254213   -2.979216   -3.449092
 H   -5.887688   -2.296057   -3.810980
 H   -9.592832   -0.235153    0.215942
 H   -8.093152    0.409364    0.887349
 H   -8.917832   -2.546404    1.252046
 H   -7.632173   -2.675653    4.423176
 H   -8.808969   -3.470679    3.358026
 H   -9.349143   -2.346108    4.621057
 H   -7.189466   -0.122774    4.114681
 H   -8.908572    0.223272    4.277144
 H   -8.037778    0.758416    2.835083
