80 
4urn_ligand_xtb.xyz
 C    8.749043   -0.671186    0.858663
 O    7.373605   -0.820267    0.601349
 N    8.055741    2.944856    3.413855
 C    6.967368    2.389435    2.834504
 O    5.874528    2.334588    3.327378
 O    7.284084    1.921929    1.598185
 C    6.769523    0.254116   -0.081726
 C    6.208471    1.320119    0.868154
 C    5.502291    2.414804    0.058274
 O    6.410952    3.121045   -0.745001
 C    4.445404    1.788748   -0.862204
 O    4.931298    0.736403   -1.623062
 C    5.630525   -0.322398   -0.961873
 C    6.250087   -1.142849   -2.095001
 C    4.695568   -1.210341   -0.137563
 O    3.364835    1.449025   -0.027872
 C    2.171878    1.077932   -0.584907
 C    1.124503    0.885306    0.320259
 C    1.329419    1.065387    1.791782
 C   -0.121122    0.507798   -0.182253
 C   -0.331999    0.326004   -1.555463
 C    0.740779    0.519086   -2.429367
 C    1.976482    0.887843   -1.954224
 O   -1.124814    0.330231    0.716610
 C   -2.364434   -0.023436    0.326425
 O   -3.231415   -0.158122    1.174489
 C   -2.627844   -0.230362   -1.086756
 C   -1.642713   -0.060013   -2.029141
 O   -1.783819   -0.217628   -3.333857
 N   -3.968946   -0.604235   -1.275864
 C   -4.723059   -0.815145   -2.371352
 O   -4.282392   -0.770998   -3.523843
 C   -6.141142   -1.133342   -2.097228
 C   -6.761431   -0.849590   -0.882978
 C   -8.084049   -1.173636   -0.645410
 C   -8.818268   -1.792679   -1.663855
 O  -10.117642   -2.114196   -1.432118
 C   -8.212649   -2.060030   -2.888765
 C   -6.890784   -1.734579   -3.106318
 C   -8.686453   -0.883052    0.706192
 C   -7.833556   -1.498717    1.781058
 C   -6.895333   -0.907677    2.511911
 C   -6.078858   -1.685917    3.501287
 C   -6.516252    0.541653    2.448976
 H    9.308875   -0.507062   -0.069933
 H    9.070479   -1.605885    1.315009
 H    8.949320    0.156251    1.545236
 H    8.958721    2.873797    2.981334
 H    7.983686    3.258250    4.364973
 H    7.499857    0.745625   -0.742307
 H    5.508926    0.877958    1.583813
 H    4.989321    3.096717    0.754765
 H    7.190845    3.310996   -0.206495
 H    4.141829    2.547733   -1.600142
 H    6.880972   -1.920593   -1.676574
 H    5.462601   -1.594624   -2.690282
 H    6.840925   -0.495963   -2.737739
 H    5.273847   -2.024445    0.287818
 H    3.918921   -1.611903   -0.784254
 H    4.222722   -0.657137    0.667133
 H    2.127848    1.778511    1.974473
 H    0.409658    1.404327    2.259924
 H    1.610000    0.116511    2.247780
 H    0.575962    0.368087   -3.483667
 H    2.800376    1.008780   -2.637531
 H   -2.745854   -0.453461   -3.556778
 H   -4.412587   -0.689607   -0.361940
 H   -6.233074   -0.350776   -0.086131
 H  -10.495475   -2.530303   -2.216374
 H   -8.789224   -2.532998   -3.673268
 H   -6.418439   -1.945686   -4.053057
 H   -9.691368   -1.303625    0.744997
 H   -8.764037    0.197661    0.838912
 H   -7.993702   -2.561772    1.909736
 H   -5.023288   -1.602547    3.244516
 H   -6.358395   -2.736204    3.511478
 H   -6.207926   -1.279388    4.503915
 H   -5.464242    0.626626    2.174597
 H   -6.631621    0.995205    3.433321
 H   -7.114067    1.105235    1.738591
