26 
4uyd_ligand_ani-2x.xyz
 C   22.851460   50.817804   -1.963535
 N   23.804183   50.301679   -1.010593
 C   25.098231   50.736080   -0.797836
 C   25.841836   51.748949   -1.390079
 C   27.141831   51.929432   -0.943829
 C   27.691167   51.120543    0.066247
 C   26.931795   50.126342    0.678025
 C   25.638854   49.938639    0.225958
 N   24.658615   49.042951    0.608988
 C   24.755861   48.027126    1.628493
 C   23.509025   49.249372   -0.147138
 O   22.461288   48.636611   -0.070299
 C   29.089193   51.308119    0.566688
 N   29.957615   51.951740   -0.281372
 O   29.435032   50.930546    1.672636
 H   23.225162   50.711172   -2.986669
 H   21.937549   50.233026   -1.850073
 H   22.633581   51.872211   -1.766839
 H   25.423645   52.373175   -2.176607
 H   27.735475   52.736522   -1.365062
 H   27.366501   49.542267    1.485135
 H   25.555302   47.317697    1.394018
 H   24.949094   48.475776    2.607695
 H   23.799482   47.502787    1.651714
 H   30.919798   51.946972    0.025751
 H   29.809326   51.919461   -1.278418
