26 
4uyd_ligand_xtb.xyz
 C   22.865234   50.820670   -1.957244
 N   23.810754   50.297607   -1.011636
 C   25.097305   50.727386   -0.801317
 C   25.843189   51.733425   -1.386551
 C   27.143834   51.914499   -0.942710
 C   27.689553   51.117565    0.064578
 C   26.928371   50.116474    0.670385
 C   25.639128   49.926800    0.225051
 N   24.659437   49.037503    0.602344
 C   24.758166   48.033849    1.625197
 C   23.524058   49.253289   -0.149466
 O   22.477945   48.649473   -0.076202
 C   29.077124   51.302431    0.575931
 N   29.958480   51.860136   -0.293590
 O   29.408614   50.979454    1.698258
 H   23.241472   50.715541   -2.976978
 H   21.947153   50.244438   -1.847121
 H   22.660846   51.874147   -1.755350
 H   25.428147   52.361356   -2.159017
 H   27.725513   52.716794   -1.371057
 H   27.362967   49.527797    1.461938
 H   25.544775   47.316195    1.383962
 H   24.975073   48.492387    2.591759
 H   23.798002   47.521294    1.670653
 H   30.915036   51.956770    0.004023
 H   29.740726   51.999720   -1.262839
