55 
4uye_ligand_xtb.xyz
 C   10.391181   44.657509   21.705509
 O    9.223145   43.944004   21.375123
 C    9.129579   42.621090   21.714020
 C   10.059511   41.987377   22.531328
 C    9.933614   40.644878   22.843338
 C    8.882027   39.906164   22.333839
 C    7.959305   40.527936   21.516229
 C    8.050558   41.880192   21.199937
 C    6.978254   42.399584   20.291946
 O    6.348566   41.638674   19.578070
 N    6.740273   43.730974   20.382097
 C    5.806440   44.499033   19.684891
 C    5.162338   44.035238   18.543319
 C    4.311482   44.905997   17.892711
 N    3.547660   44.755542   16.756020
 C    3.443785   43.575177   15.945219
 C    2.873778   45.927919   16.494176
 O    2.114573   46.140868   15.572584
 N    3.229188   46.821710   17.485676
 C    2.721010   48.161323   17.561789
 C    4.108433   46.215176   18.356669
 C    4.727975   46.672207   19.503949
 C    5.575221   45.801824   20.182901
 N    6.263306   46.166053   21.362470
 C    5.734371   45.587876   22.589547
 C    6.806916   45.630640   23.674741
 C    7.247835   47.073018   23.906217
 C    7.694542   47.687088   22.582919
 C    6.579522   47.567215   21.544794
 H   10.485902   44.801596   22.787024
 H   11.287677   44.162163   21.322499
 H   10.284113   45.627296   21.221133
 H   10.893325   42.538836   22.936249
 H   10.668618   40.181204   23.484310
 H    8.784630   38.857600   22.567844
 H    7.134583   39.976613   21.090208
 H    7.320080   44.286223   21.000113
 H    5.338457   43.033979   18.191922
 H    4.414432   43.316576   15.517029
 H    3.080845   42.734429   16.539359
 H    2.737324   43.792106   15.144865
 H    2.053389   48.301130   16.712189
 H    2.165108   48.312203   18.490078
 H    3.535827   48.886987   17.508626
 H    4.549755   47.671280   19.866974
 H    5.423467   44.559269   22.398900
 H    4.847973   46.150105   22.932119
 H    7.662333   45.033497   23.354690
 H    6.414108   45.197410   24.595911
 H    8.060292   47.110561   24.634369
 H    6.410078   47.647725   24.308714
 H    8.574676   47.157235   22.215832
 H    7.956922   48.737593   22.718734
 H    5.707140   48.149007   21.889988
 H    6.912957   47.974391   20.587592
