55 
4uye_ligand_ani-2x.xyz
 C   10.281681   44.520838   22.318693
 O    9.165289   43.864151   21.750229
 C    9.122010   42.496615   21.812680
 C   10.057619   41.775666   22.563323
 C    9.994286   40.388227   22.625993
 C    9.008338   39.697665   21.937175
 C    8.085837   40.414782   21.187636
 C    8.107834   41.810371   21.110755
 C    7.020473   42.411972   20.247058
 O    6.314159   41.671643   19.571139
 N    6.862814   43.766005   20.291870
 C    5.877733   44.523217   19.629317
 C    5.176421   44.026557   18.541477
 C    4.274539   44.884032   17.935531
 N    3.442020   44.687652   16.851304
 C    3.321530   43.484695   16.066171
 C    2.709709   45.845126   16.599652
 O    1.887508   46.017066   15.720620
 N    3.114364   46.765819   17.564814
 C    2.580431   48.103191   17.647302
 C    4.065182   46.194709   18.387650
 C    4.759085   46.698611   19.477550
 C    5.660070   45.848775   20.109610
 N    6.386849   46.247899   21.271260
 C    5.814354   45.760010   22.531270
 C    6.833974   45.914117   23.653608
 C    7.284494   47.371181   23.770632
 C    7.763309   47.894103   22.415674
 C    6.692252   47.669079   21.356091
 H   10.309923   44.389657   23.408530
 H   11.220458   44.161368   21.879911
 H   10.165029   45.582334   22.087185
 H   10.842875   42.288449   23.106854
 H   10.730166   39.849036   23.218332
 H    8.956773   38.613630   21.978191
 H    7.305779   39.905533   20.629848
 H    7.497032   44.298157   20.873083
 H    5.331565   43.006074   18.211183
 H    4.280147   43.227588   15.604636
 H    2.990900   42.647983   16.689691
 H    2.580652   43.677501   15.288945
 H    3.369000   48.848613   17.504233
 H    1.839886   48.203140   16.852395
 H    2.099743   48.271122   18.616127
 H    4.606517   47.718970   19.819476
 H    5.532781   44.711236   22.398171
 H    4.886043   46.309941   22.776670
 H    7.698789   45.273059   23.435122
 H    6.398171   45.563702   24.596570
 H    8.073550   47.471622   24.524285
 H    6.439857   47.986978   24.114239
 H    8.673708   47.361480   22.106274
 H    8.013882   48.960373   22.470092
 H    5.797402   48.269171   21.615767
 H    7.043606   48.008811   20.377404
