48 
4v0i_ligand_aiqm1.xyz
 C    3.179297    0.770269    0.280033
 N    4.010351    0.911131   -0.799219
 C    3.514670    0.601258   -2.135499
 C    3.806812   -0.861554   -2.458742
 O    5.198803   -1.131873   -2.358625
 C    5.684350   -0.851273   -1.055389
 C    5.434349    0.611764   -0.701443
 N    1.831490    0.798075   -0.027847
 C    0.995229    0.718200    0.963191
 N    1.356282    0.605012    2.252982
 C    2.706974    0.558978    2.668411
 C    3.625909    0.654548    1.580806
 O    2.969405    0.440862    3.854581
 C   -0.464848    0.824475    0.594387
 C   -1.461270    0.183860    1.543325
 O   -1.221785    0.002173    2.730339
 N   -2.659729   -0.180285    1.022946
 C   -4.388226   -1.776945    0.789533
 C   -3.603935   -0.982412    1.845584
 C   -4.258563   -0.922298   -0.444464
 C   -3.212210   -0.007505   -0.271981
 C   -2.921436    0.935826   -1.251578
 C   -3.678283    0.910321   -2.431742
 C   -4.700420   -0.009455   -2.618989
 C   -5.000337   -0.933424   -1.613453
 C   -4.498597   -0.067639    2.672725
 H    4.034417    1.244991   -2.851227
 H    2.448768    0.806917   -2.175686
 H    3.250769   -1.510803   -1.769289
 H    3.523663   -1.103776   -3.482650
 H    5.189045   -1.497793   -0.319803
 H    6.750186   -1.075472   -1.068994
 H    5.957224    1.250680   -1.418687
 H    5.812839    0.847473    0.288543
 H    0.641272    0.467496    2.961615
 H    4.667047    0.627750    1.852843
 H   -0.577965    0.420279   -0.409993
 H   -0.697911    1.892027    0.528150
 H   -3.933860   -2.758975    0.629697
 H   -5.423245   -1.929951    1.090318
 H   -3.020487   -1.625556    2.501197
 H   -2.156188    1.688789   -1.136920
 H   -3.458263    1.636447   -3.202097
 H   -5.272240   -0.003547   -3.536452
 H   -5.808110   -1.642150   -1.743601
 H   -5.188383   -0.664827    3.272591
 H   -3.898286    0.545034    3.343358
 H   -5.084275    0.582975    2.017215
