51 
4w4w_ligand_xtb.xyz
 C    2.544987  -30.814209  -32.300299
 C    4.220089  -27.527614  -32.224670
 N    6.586472  -23.889859  -32.872373
 C    7.363573  -23.663652  -34.011056
 C    9.336116  -22.680853  -34.983919
 C    8.958736  -23.139996  -36.235316
 C    7.771642  -23.837484  -36.376260
 C    5.426941  -28.455151  -33.824750
 C    0.996117  -35.657007  -33.492886
 C    1.104429  -36.886143  -34.118140
 C    4.564375  -37.185403  -35.170742
 C    3.317608  -36.616397  -34.567343
 C    3.322361  -35.366430  -33.961411
 C    2.143208  -34.869277  -33.410281
 N    2.176298  -33.612472  -32.813045
 C    1.165750  -32.934359  -32.188428
 O    0.044749  -33.365836  -32.028170
 C    1.575723  -31.589406  -31.679543
 C    0.918167  -31.096668  -30.554691
 C    1.254385  -29.857644  -30.042325
 C    2.234192  -29.088543  -30.644924
 C    2.875546  -29.563597  -31.785635
 N    3.860735  -28.821344  -32.437420
 C    5.237646  -27.253803  -33.111153
 N    5.938484  -26.071406  -33.305809
 C    5.793519  -24.961086  -32.522023
 O    5.059488  -24.897541  -31.559307
 C    8.546973  -22.937947  -33.879865
 C    6.970762  -24.094190  -35.277699
 N    4.591063  -29.379267  -33.406441
 N    2.221904  -37.360418  -34.641121
 H    3.046223  -31.125163  -33.204202
 H    3.761946  -26.886064  -31.504996
 H    6.629142  -23.180748  -32.153608
 H   10.251518  -22.120579  -34.866331
 H    9.578538  -22.942986  -37.096263
 H    7.455504  -24.176019  -37.351731
 H    6.128567  -28.664778  -34.607584
 H    0.062280  -35.316793  -33.081827
 H    0.241709  -37.533201  -34.206580
 H    4.940421  -36.529589  -35.954141
 H    5.339746  -37.287774  -34.413337
 H    4.346446  -38.160987  -35.593914
 H    4.233930  -34.786409  -33.919818
 H    3.081328  -33.161579  -32.833038
 H    0.150592  -31.701283  -30.097436
 H    0.751127  -29.483623  -29.163902
 H    2.494052  -28.128570  -30.229476
 H    6.677166  -26.093552  -33.992694
 H    8.840601  -22.578312  -32.904351
 H    6.022924  -24.593988  -35.411321
