54 
4w4y_ligand_ani-2x.xyz
 C   10.109012  -23.160853  -36.529147
 C    8.947685  -23.358849  -35.587829
 C    7.768793  -23.972394  -36.018140
 C    6.696723  -24.172978  -35.155227
 C    6.777446  -23.753542  -33.825678
 N    5.701999  -23.924113  -32.923166
 C    5.001255  -25.070530  -32.588529
 O    4.096278  -25.031491  -31.772795
 N    5.394055  -26.220536  -33.234901
 C    4.859572  -27.484218  -32.940527
 C    5.349879  -28.713399  -33.438457
 N    4.622326  -29.732405  -33.010298
 N    3.676237  -29.182612  -32.227873
 C    3.774777  -27.822790  -32.170799
 C    2.716818  -30.011475  -31.593799
 C    2.062007  -29.584536  -30.439010
 C    1.118477  -30.414528  -29.844830
 C    0.839252  -31.661355  -30.390560
 C    1.523543  -32.098055  -31.525093
 C    2.454978  -31.262045  -32.140834
 C    1.189592  -33.474692  -32.032361
 O    0.116680  -33.996381  -31.778842
 N    2.191721  -34.077278  -32.755408
 C    2.201195  -35.353343  -33.337128
 C    1.105202  -36.217192  -33.302546
 C    1.244088  -37.450060  -33.923070
 N    2.340373  -37.879547  -34.552851
 C    3.385296  -37.043374  -34.581828
 C    4.618341  -37.530676  -35.292505
 C    3.357956  -35.783038  -33.992199
 C    7.936181  -23.108591  -33.393722
 C    9.006413  -22.928584  -34.262735
 H   10.478179  -24.118919  -36.913953
 H    9.819934  -22.553423  -37.394996
 H   10.944525  -22.657447  -36.033869
 H    7.689630  -24.312906  -37.047943
 H    5.781128  -24.633631  -35.518634
 H    5.469076  -23.152474  -32.314981
 H    6.249546  -26.210400  -33.773011
 H    6.192953  -28.894117  -34.093420
 H    3.080370  -27.195386  -31.635148
 H    2.298784  -28.618877  -30.002800
 H    0.597575  -30.079524  -28.952136
 H    0.094625  -32.319551  -29.952940
 H    2.958668  -31.529852  -33.065031
 H    3.071878  -33.584818  -32.789625
 H    0.189716  -35.927086  -32.805216
 H    0.406643  -38.146721  -33.911679
 H    4.983065  -38.452450  -34.828853
 H    4.388137  -37.756858  -36.338239
 H    5.414536  -36.782590  -35.261558
 H    4.232766  -35.139191  -34.048097
 H    8.003888  -22.763566  -32.364082
 H    9.906225  -22.435154  -33.899301
