54 
4w4y_ligand_aiqm1.xyz
 C   10.140544  -23.613518  -36.366784
 C    8.913417  -23.641808  -35.495321
 C    7.658505  -23.933917  -36.035327
 C    6.517542  -23.962410  -35.237523
 C    6.613146  -23.712608  -33.868183
 N    5.460895  -23.781554  -33.040776
 C    4.864235  -24.950725  -32.608746
 O    4.053552  -24.957818  -31.700323
 N    5.238048  -26.070009  -33.299798
 C    4.738799  -27.349495  -33.040029
 C    5.151500  -28.535284  -33.677459
 N    4.478898  -29.587551  -33.223625
 N    3.646189  -29.093582  -32.295544
 C    3.763382  -27.738716  -32.153875
 C    2.767985  -29.958745  -31.598875
 C    2.163051  -29.544168  -30.411869
 C    1.276491  -30.400363  -29.763362
 C    1.008019  -31.660032  -30.282050
 C    1.643562  -32.081806  -31.449653
 C    2.517924  -31.225419  -32.118391
 C    1.319016  -33.458812  -31.940234
 O    0.289867  -34.023713  -31.622640
 N    2.281727  -34.026213  -32.736566
 C    2.270698  -35.288406  -33.342261
 C    1.169381  -36.148376  -33.341526
 C    1.310316  -37.365096  -33.998305
 N    2.408991  -37.785187  -34.634748
 C    3.459803  -36.949037  -34.629423
 C    4.690057  -37.422414  -35.343146
 C    3.427562  -35.707681  -34.001367
 C    7.860109  -23.414194  -33.317991
 C    8.991584  -23.376773  -34.127333
 H   10.305020  -24.582418  -36.841499
 H   10.036070  -22.875459  -37.163380
 H   11.026812  -23.363871  -35.783512
 H    7.563498  -24.138901  -37.095350
 H    5.548948  -24.187043  -35.669184
 H    5.312832  -23.022973  -32.396820
 H    5.967090  -25.980963  -33.983199
 H    5.902357  -28.661489  -34.440315
 H    3.167715  -27.157828  -31.476491
 H    2.378852  -28.568315  -30.000940
 H    0.795130  -30.075027  -28.850533
 H    0.310459  -32.332302  -29.804390
 H    2.998560  -31.493883  -33.048363
 H    3.129371  -33.499304  -32.843133
 H    0.246962  -35.887612  -32.848044
 H    0.473934  -38.053244  -34.012997
 H    5.038399  -38.356639  -34.902619
 H    4.457339  -37.627079  -36.388196
 H    5.486623  -36.679608  -35.289693
 H    4.305126  -35.068682  -34.027985
 H    7.938200  -23.217882  -32.254747
 H    9.951908  -23.144449  -33.683759
