15 
4w53_ligand_xtb.xyz
 C  -32.365318    7.253351    2.221348
 C  -33.183773    6.605645    3.297342
 C  -33.236090    7.166964    4.568184
 C  -33.986989    6.580912    5.570524
 C  -34.699261    5.420835    5.316495
 C  -34.654499    4.853269    4.055305
 C  -33.901700    5.442676    3.054177
 H  -32.715298    8.268707    2.038177
 H  -31.320202    7.312279    2.523328
 H  -32.427086    6.692188    1.292410
 H  -32.681524    8.072557    4.770847
 H  -34.016694    7.030205    6.552631
 H  -35.286423    4.961588    6.098060
 H  -35.207528    3.948207    3.849625
 H  -33.871816    4.993117    2.071548
