15 
4w53_ligand_aiqm1.xyz
 C  -32.358346    7.257992    2.210396
 C  -33.178931    6.612128    3.296085
 C  -33.235889    7.171424    4.575893
 C  -33.992372    6.579360    5.582658
 C  -34.708625    5.412971    5.328074
 C  -34.660602    4.845690    4.058254
 C  -33.901561    5.442729    3.053973
 H  -32.701182    8.275908    2.014929
 H  -31.307295    7.319001    2.499203
 H  -32.425587    6.690107    1.281664
 H  -32.682772    8.079826    4.787930
 H  -34.021265    7.030654    6.565959
 H  -35.296928    4.952042    6.110074
 H  -35.213009    3.938918    3.847600
 H  -33.869837    4.993751    2.067306
