21 
4w55_ligand_ani-2x.xyz
 C  -38.789749   19.301425   15.833369
 C  -39.703842   19.026570   14.641811
 C  -40.291660   20.310214   14.040663
 C  -41.220671   20.057952   12.874775
 C  -40.712667   19.623815   11.648035
 C  -41.558790   19.374846   10.572570
 C  -42.933527   19.547210   10.711165
 C  -43.452424   19.970384   11.930367
 C  -42.599976   20.223515   13.002222
 H  -37.944019   19.937383   15.545521
 H  -39.332523   19.815385   16.635753
 H  -38.383803   18.371916   16.246022
 H  -40.526654   18.369250   14.948125
 H  -39.150696   18.485700   13.863224
 H  -39.465532   20.956383   13.712144
 H  -40.827325   20.862571   14.823741
 H  -39.638624   19.478123   11.535702
 H  -41.144003   19.042131    9.623981
 H  -43.596453   19.351059    9.872014
 H  -44.524923   20.107414   12.049261
 H  -43.013340   20.557253   13.952535
