24 
4w57_ligand_aiqm1.xyz
 C  -40.592412   20.068041   12.411498
 C  -41.133263   19.307291   11.369002
 C  -42.510001   19.180106   11.211775
 C  -43.378609   19.810501   12.097378
 C  -42.857849   20.571060   13.137994
 C  -41.478137   20.697459   13.291225
 C  -39.097322   20.166549   12.591036
 C  -38.455890   18.822792   12.957481
 C  -38.985839   18.219313   14.258341
 C  -38.609865   19.033515   15.493487
 H  -40.467012   18.808197   10.673100
 H  -42.902081   18.585400   10.396638
 H  -44.448626   19.709121   11.976701
 H  -43.520617   21.067074   13.835106
 H  -41.084555   21.291911   14.109472
 H  -38.869704   20.905716   13.363924
 H  -38.644187   20.533740   11.665766
 H  -37.371249   18.955850   13.030263
 H  -38.625697   18.115436   12.139461
 H  -38.588659   17.206492   14.362665
 H  -40.073033   18.126572   14.189925
 H  -37.525305   19.139298   15.574847
 H  -39.038853   20.036063   15.458096
 H  -38.966636   18.553803   16.406417
