24 
4w57_ligand_xtb.xyz
 C  -40.605703   20.032278   12.379051
 C  -41.135967   19.413408   11.253047
 C  -42.503648   19.293293   11.088813
 C  -43.365098   19.791571   12.051728
 C  -42.848984   20.412401   13.175544
 C  -41.479393   20.530844   13.336358
 C  -39.117712   20.121654   12.561146
 C  -38.523832   18.775046   12.998574
 C  -39.030982   18.294658   14.358287
 C  -38.507509   19.128614   15.521813
 H  -40.468118   19.025766   10.496301
 H  -42.899843   18.810810   10.206823
 H  -44.433748   19.698313   11.924927
 H  -43.514868   20.805884   13.930174
 H  -41.085281   21.019569   14.216376
 H  -38.877175   20.886864   13.299931
 H  -38.653496   20.410794   11.614819
 H  -37.435113   18.862232   13.031729
 H  -38.775885   18.024472   12.245775
 H  -38.712853   17.258737   14.499208
 H  -40.123051   18.307868   14.359683
 H  -37.419271   19.139736   15.523817
 H  -38.860432   20.154603   15.460424
 H  -38.847439   18.711884   16.467253
