24 
4w57_ligand_ani-2x.xyz
 C  -40.583896   20.065181   12.406224
 C  -41.140244   19.278558   11.393740
 C  -42.519310   19.158643   11.257098
 C  -43.369900   19.818558   12.139301
 C  -42.830977   20.599722   13.156016
 C  -41.449794   20.718254   13.285228
 C  -39.080860   20.173606   12.557439
 C  -38.408130   18.845841   12.950055
 C  -38.966370   18.205897   14.224710
 C  -38.697782   19.016404   15.491830
 H  -40.482278   18.755590   10.700140
 H  -42.931783   18.544851   10.459282
 H  -44.447924   19.723828   12.033759
 H  -43.486569   21.120482   13.850530
 H  -41.036951   21.331697   14.084967
 H  -38.847811   20.943697   13.303415
 H  -38.640176   20.524164   11.613910
 H  -37.328353   19.012555   13.066188
 H  -38.520242   18.137809   12.118506
 H  -38.524342   17.208049   14.338571
 H  -40.047634   18.051249   14.103825
 H  -37.623771   19.191225   15.628547
 H  -39.192026   19.993780   15.459652
 H  -39.068275   18.491662   16.378670
