34 
4w7t_ligand_ani-2x.xyz
 C   -3.371963   -0.284722    0.163140
 C   -1.959226   -0.356072    0.086961
 C   -1.301946    0.771921   -0.418054
 O   -1.714002   -2.567998    0.942952
 C    4.609611    0.305755    1.225423
 C    5.203560   -0.077177    0.026921
 C    4.401076   -0.474228   -1.039410
 C    3.016172   -0.487523   -0.908458
 C   -4.222147   -1.404085    0.693057
 N   -4.026704    0.794503   -0.239209
 N   -1.964368    1.849615   -0.838772
 N   -3.980470    2.927137   -1.110444
 C   -3.290900    1.811777   -0.722618
 C   -1.191912   -1.561988    0.495218
 C    0.312860   -1.519530    0.292412
 C    0.899576   -0.117890    0.449240
 C    2.408159   -0.103989    0.288908
 C    0.198118    0.825004   -0.535551
 C    3.223678    0.290677    1.351934
 H    5.224769    0.617408    2.066193
 H    6.285675   -0.067054   -0.076898
 H    4.854843   -0.775045   -1.980402
 H    2.409012   -0.801212   -1.757122
 H   -4.063750   -2.316676    0.113654
 H   -5.269419   -1.097706    0.644749
 H   -3.943684   -1.648726    1.720806
 H   -4.965203    2.796556   -1.283313
 H   -3.481893    3.562218   -1.714303
 H    0.509583   -1.887842   -0.722765
 H    0.767261   -2.230162    0.985988
 H    0.667460    0.227081    1.464521
 H    0.520102    1.859919   -0.394805
 H    0.474611    0.550723   -1.561463
 H    2.761261    0.589231    2.291608
