55 
4w9c_ligand_ani-2x.xyz
 C   -1.922099    0.055121   -1.680708
 C   -2.477575   -1.107501   -0.849627
 C   -3.898820   -0.775617   -0.381928
 C   -2.520978   -2.364806   -1.725266
 C   -1.558858   -1.425472    0.343179
 C   -1.365919   -0.334526    1.394056
 O   -1.874388    0.786243    1.303238
 N   -0.576028   -0.652368    2.452837
 C   -0.014997   -1.964760    2.768490
 C    0.908780   -1.699655    3.956095
 O    0.967195   -2.867919    4.746817
 C    0.264983   -0.492814    4.644662
 C   -0.262119    0.349247    3.487794
 C    0.805795    1.341980    2.972384
 O    1.989693    1.225051    3.257641
 N    0.321735    2.340314    2.182163
 C    1.252620    3.116290    1.376147
 C    1.521386    2.459233    0.039213
 C    2.616959    1.615029   -0.146069
 C    2.822140    0.974934   -1.361898
 C    0.621897    2.626251   -1.018188
 C    0.826060    1.993221   -2.235150
 C    1.933325    1.154639   -2.419743
 C    2.157685    0.473673   -3.693215
 O    1.245845    0.677943   -4.698154
 C    1.698820   -0.063987   -5.727407
 N    2.787039   -0.710179   -5.489751
 C    3.096548   -0.374956   -4.182793
 H   -2.535991    0.206469   -2.576939
 H   -0.892914   -0.147006   -2.002928
 H   -1.920005    0.981411   -1.099232
 H   -4.311145   -1.598167    0.215692
 H   -3.908140    0.130906    0.227612
 H   -4.556684   -0.624433   -1.246599
 H   -2.924948   -3.219506   -1.170360
 H   -1.518570   -2.634807   -2.077732
 H   -3.154847   -2.209290   -2.606085
 H   -0.564040   -1.688009   -0.047721
 H   -1.934348   -2.325552    0.850118
 H   -0.786265   -2.685342    3.075473
 H    0.536171   -2.391588    1.922498
 H    1.903627   -1.413941    3.589463
 H    1.620033   -2.723410    5.442489
 H   -0.565117   -0.838980    5.271213
 H    0.972122    0.062669    5.264785
 H   -1.172148    0.906276    3.742096
 H   -0.605784    2.181007    1.796502
 H    2.176747    3.218737    1.951449
 H    0.829250    4.117979    1.233856
 H    3.314919    1.453596    0.672215
 H    3.685480    0.326983   -1.486934
 H   -0.252464    3.261693   -0.885065
 H    0.107900    2.117111   -3.040423
 H    1.115756   -0.046005   -6.638821
 H    3.975382   -0.773311   -3.697441
