55 
4w9c_ligand_xtb.xyz
 C   -1.821216    0.134616   -1.759519
 C   -2.193000   -1.112751   -0.957743
 C   -3.619481   -0.985490   -0.421067
 C   -2.102083   -2.338373   -1.873280
 C   -1.208349   -1.322671    0.206942
 C   -1.180129   -0.239992    1.263144
 O   -1.744974    0.843711    1.171884
 N   -0.449439   -0.537396    2.356747
 C    0.284100   -1.759031    2.601502
 C    0.973279   -1.551322    3.957654
 O    1.025015   -2.782826    4.632449
 C    0.093731   -0.493591    4.642632
 C   -0.333810    0.391493    3.482382
 C    0.755473    1.425475    3.129951
 O    1.870896    1.392690    3.611144
 N    0.336662    2.326484    2.226151
 C    1.273333    3.112718    1.444829
 C    1.460171    2.449027    0.105027
 C    2.012020    1.171969    0.052139
 C    2.107955    0.492509   -1.143105
 C    1.015915    3.038265   -1.069957
 C    1.115741    2.368819   -2.273787
 C    1.652244    1.082634   -2.323798
 C    1.713529    0.362644   -3.578158
 O    1.332037    0.964980   -4.736801
 C    1.489904    0.035134   -5.681234
 N    1.930170   -1.097765   -5.243963
 C    2.082451   -0.918978   -3.903439
 H   -2.520679    0.274579   -2.580405
 H   -0.819634    0.037008   -2.172729
 H   -1.850114    1.015058   -1.125369
 H   -3.892366   -1.865522    0.158474
 H   -3.704305   -0.108610    0.213725
 H   -4.323477   -0.885010   -1.243645
 H   -2.367916   -3.246498   -1.335880
 H   -1.093559   -2.453060   -2.266006
 H   -2.782873   -2.229372   -2.713944
 H   -0.193435   -1.400227   -0.195776
 H   -1.440863   -2.271499    0.696444
 H   -0.389740   -2.618700    2.692088
 H    1.004237   -1.960693    1.805028
 H    1.982856   -1.144496    3.813452
 H    1.474858   -2.657036    5.474447
 H   -0.767503   -0.980563    5.101456
 H    0.642843    0.074394    5.390898
 H   -1.290963    0.897682    3.638289
 H   -0.576481    2.164421    1.803877
 H    2.213211    3.140970    2.003295
 H    0.884898    4.127298    1.329547
 H    2.365762    0.713270    0.964030
 H    2.537258   -0.497318   -1.171696
 H    0.583615    4.027780   -1.042742
 H    0.762703    2.829552   -3.183652
 H    1.251454    0.275918   -6.697474
 H    2.438769   -1.712208   -3.280458
