58 
4w9d_ligand_xtb.xyz
 C   -3.301284    1.688914   -0.786628
 C   -1.783322    1.800706   -0.636967
 C   -1.299104    3.091999   -1.305351
 C   -1.404492    1.837916    0.843541
 C   -1.097663    0.618967   -1.346691
 C   -1.482837   -0.763570   -0.868153
 O   -2.118937   -0.999227    0.152605
 N   -1.049813   -1.773834   -1.648980
 C   -0.278140   -1.658428   -2.866297
 C   -0.020502   -3.102351   -3.320585
 O   -0.029010   -3.142782   -4.725438
 C   -1.162846   -3.890849   -2.660843
 C   -1.343232   -3.172914   -1.332753
 C   -0.306045   -3.643682   -0.292241
 O    0.625962   -4.369129   -0.578330
 N   -0.536789   -3.138145    0.930847
 C    0.514138   -3.061503    1.930167
 C    1.126340   -1.686128    1.867153
 C    0.930037   -0.752293    2.874268
 C    1.406971    0.538170    2.747604
 C    1.823806   -1.304380    0.725239
 C    2.293984   -0.016687    0.585406
 C    2.080128    0.930518    1.590777
 C    2.542954    2.289884    1.397265
 O    3.400499    2.551760    0.365638
 C    3.621712    3.865006    0.420868
 N    2.990661    4.468753    1.370242
 C    2.285658    3.492868    2.020506
 C    1.414228    3.841932    3.170435
 H   -3.789091    2.546209   -0.328931
 H   -3.660195    0.787601   -0.298622
 H   -3.583102    1.654416   -1.837421
 H   -0.218779    3.190230   -1.216733
 H   -1.757699    3.955523   -0.829850
 H   -1.560306    3.106001   -2.361643
 H   -0.328119    1.945107    0.957755
 H   -1.890723    2.679714    1.331569
 H   -1.715806    0.922501    1.336613
 H   -0.013828    0.705858   -1.218382
 H   -1.308227    0.684126   -2.416621
 H    0.652546   -1.110882   -2.699875
 H   -0.848136   -1.153107   -3.654355
 H    0.940352   -3.459787   -2.927775
 H    0.152359   -4.044251   -5.011085
 H   -2.060707   -3.810140   -3.274641
 H   -0.906000   -4.937707   -2.511996
 H   -2.352064   -3.250160   -0.917166
 H   -1.279271   -2.444891    1.008931
 H    0.088552   -3.259260    2.916507
 H    1.249393   -3.832418    1.684672
 H    0.395739   -1.036418    3.769125
 H    1.253746    1.242732    3.547132
 H    1.989201   -2.028184   -0.059599
 H    2.828843    0.273414   -0.307029
 H    4.278068    4.315725   -0.296052
 H    0.427626    3.396106    3.058985
 H    1.320480    4.923523    3.211590
 H    1.852387    3.497130    4.106696
