27 
4w9s_ligand_xtb.xyz
 O    9.052272   19.606439   -8.718933
 C    9.684383   20.482098   -9.516439
 C    9.938705   20.280283  -10.841358
 N   10.581374   21.189319  -11.601538
 C   10.979119   22.302626  -11.072284
 C   11.683617   23.272536  -11.909440
 C   12.446105   24.314724  -11.379391
 C   13.094743   25.204006  -12.212043
 C   12.995313   25.072323  -13.596560
 C   12.242617   24.023702  -14.131805
 C   11.599674   23.136997  -13.299026
 C   13.652106   25.984553  -14.503326
 N   13.596020   25.950467  -15.821259
 N   14.330821   26.954767  -16.263679
 N   14.842632   27.614331  -15.313531
 N   14.445002   27.043277  -14.171950
 N   10.750963   22.591617   -9.752164
 C   10.105168   21.731162   -8.894517
 O    9.900331   21.994683   -7.719691
 H    9.005062   20.014538   -7.833819
 H    9.638150   19.374166  -11.344892
 H   12.566145   24.430957  -10.311995
 H   13.680388   25.999198  -11.774034
 H   12.180695   23.931437  -15.204376
 H   11.018066   22.321325  -13.696169
 H   14.732596   27.398426  -13.274716
 H   11.033934   23.483044   -9.362064
