36 
4wbo_ligand_ani-2x.xyz
 N   42.781208  -55.810078   -3.021369
 N   42.980222  -55.979211   -5.283552
 C   40.885722  -53.569724    4.983371
 C   42.260649  -53.354058    4.341053
 C   43.378741  -53.853555    5.262948
 C   42.342242  -53.992451    2.965367
 C   42.557832  -53.210560    1.838781
 C   42.637370  -53.772022    0.559759
 C   42.495675  -55.150801    0.419488
 C   42.278538  -55.958382    1.535297
 C   42.203763  -55.379089    2.791344
 C   42.762549  -55.078771   -1.929536
 C   42.979008  -55.192647   -4.191496
 C   43.210407  -53.786078   -4.293267
 C   43.157473  -53.052962   -3.116851
 C   42.927276  -53.687205   -1.898172
 C   42.868615  -52.930999   -0.634473
 C   43.446738  -53.162611   -5.623728
 O   42.557824  -55.787863   -0.791774
 O   43.001096  -51.717922   -0.586663
 O   43.124971  -53.660018   -6.681572
 O   44.052326  -51.960491   -5.624631
 H   42.699781  -56.935580   -5.147968
 H   42.925413  -55.542410   -6.193659
 H   40.087490  -53.152791    4.360557
 H   40.679283  -54.637360    5.122228
 H   40.841395  -53.088965    5.967218
 H   42.399221  -52.273909    4.202031
 H   43.307549  -54.936597    5.416875
 H   44.366004  -53.639803    4.840421
 H   43.312362  -53.370364    6.244359
 H   42.671359  -52.132082    1.923698
 H   42.172471  -57.028282    1.391548
 H   42.033915  -56.021494    3.653343
 H   43.249997  -51.966756   -3.097715
 H   44.379016  -51.748610   -4.740160
