36 
4wbo_ligand_xtb.xyz
 N   42.756486  -55.808501   -3.004156
 N   42.990639  -55.995538   -5.247975
 C   40.905417  -53.520474    4.942224
 C   42.292052  -53.342921    4.319975
 C   43.376830  -53.918813    5.232717
 C   42.350148  -53.979181    2.953914
 C   42.605212  -53.216866    1.831155
 C   42.663503  -53.784932    0.557224
 C   42.458381  -55.160283    0.415255
 C   42.200314  -55.938390    1.541853
 C   42.148455  -55.351539    2.786967
 C   42.740323  -55.097995   -1.893771
 C   42.990731  -55.210040   -4.173227
 C   43.230493  -53.797175   -4.273569
 C   43.206826  -53.080269   -3.091068
 C   42.961869  -53.707356   -1.870419
 C   42.937192  -52.947265   -0.620748
 C   43.485025  -53.182991   -5.593052
 O   42.495856  -55.803932   -0.785469
 O   43.125239  -51.742864   -0.569637
 O   43.505367  -53.812573   -6.628431
 O   43.702751  -51.863495   -5.632765
 H   42.817484  -56.977194   -5.121319
 H   43.165310  -55.574156   -6.153349
 H   40.140461  -53.112778    4.285288
 H   40.687317  -54.571683    5.112949
 H   40.854680  -53.000975    5.896217
 H   42.478786  -52.270556    4.201651
 H   43.213581  -54.978836    5.410077
 H   44.358131  -53.792806    4.780931
 H   43.369239  -53.406094    6.191684
 H   42.768525  -52.151364    1.903532
 H   42.044689  -56.997655    1.412431
 H   41.947193  -55.972177    3.646581
 H   43.372921  -52.010874   -3.036926
 H   43.668072  -51.441959   -4.763644
