50 
4wiv_ligand_ani-2x.xyz
 O   12.450716   -9.346698  -11.034003
 C   13.367873   -8.582479  -10.435390
 C   13.041181   -7.266854  -10.602148
 C   11.834317   -7.319432  -11.376402
 C   10.978751   -6.197620  -11.880541
 C   14.491908   -9.300057   -9.763719
 C   13.744776   -6.089266  -10.079056
 C   13.887142   -4.931555  -10.851834
 C   15.717290   -2.615465   -8.536727
 C   16.772766   -0.764436   -8.540404
 C   15.873114   -2.269932   -7.190146
 N   11.486532   -8.553757  -11.621630
 C   14.301517   -6.100247   -8.796920
 C   14.965260   -4.992128   -8.300461
 C   15.078535   -3.826427   -9.067830
 C   14.550653   -3.822423  -10.361133
 N   16.242660   -1.662712   -9.345507
 N   16.593887   -1.092391   -7.211071
 C   17.466202    0.448665   -8.834102
 N   17.916037    1.246095   -7.907912
 C   17.702814    0.885405   -6.590948
 C   17.057736   -0.245141   -6.217553
 N   15.453262   -2.889064   -6.021436
 C   14.108141   -2.558345   -5.488744
 C   13.915756   -3.433750   -4.255513
 C   14.019208   -1.078530   -5.104700
 C   13.058395   -2.879416   -6.548541
 H   10.922951   -5.390102  -11.144678
 H   11.385843   -5.776334  -12.807890
 H    9.971450   -6.561827  -12.095749
 H   14.198282   -9.643175   -8.764078
 H   14.785659  -10.179260  -10.342316
 H   15.356131   -8.639873   -9.652855
 H   13.486344   -4.906017  -11.861816
 H   14.198724   -6.981895   -8.171565
 H   15.378677   -5.021043   -7.297975
 H   14.660022   -2.933600  -10.974492
 H   17.617728    0.707496   -9.878903
 H   18.090933    1.575717   -5.848377
 H   16.879669   -0.535226   -5.189462
 H   16.158081   -2.803631   -5.295180
 H   14.026441   -4.488090   -4.527415
 H   14.677535   -3.193303   -3.505073
 H   12.928491   -3.286140   -3.801987
 H   14.737760   -0.829706   -4.314525
 H   14.216326   -0.433355   -5.966932
 H   13.018199   -0.845438   -4.722874
 H   13.237617   -2.296130   -7.457754
 H   13.075647   -3.941608   -6.817038
 H   12.055054   -2.639899   -6.176396
