62 
4wnm_ligand_ani-2x.xyz
 C   -3.380616   -2.076461   12.996164
 C   -4.662307    0.263225   15.630328
 C   -4.384432   -1.380113   13.854371
 C   -5.729068   -1.636478   13.902930
 C   -6.556905   -0.948568   14.828346
 C   -6.047300   -0.015176   15.687789
 N   -3.906674   -0.425329   14.716087
 N   -3.890353    1.108052   16.316359
 N   -2.610018   -0.003952   14.798032
 O    8.939169    0.953335   14.550797
 C   -2.670177    0.904425   15.771553
 C   -0.262519    1.626031   15.873685
 C    0.643873    2.284135   16.751911
 C    1.994444    2.358838   16.482828
 C    2.464828    1.768561   15.300984
 C    1.553021    1.134921   14.442341
 C    0.176077    1.040479   14.698473
 C    3.733155    1.612211   14.639872
 C    6.175996    1.792846   14.427790
 O   -1.510907   -5.781289   14.133911
 C   -3.320230   -4.186101   14.434673
 C   -2.396859   -5.214740   15.076250
 C   -0.675408   -4.802666   13.551591
 C   -1.486418   -3.743001   12.815378
 C   -2.498546   -3.086696   13.757187
 N   -1.608876    1.629107   16.258759
 N    2.280702    0.672048   13.394367
 N    3.607478    0.965924   13.489970
 N    4.925928    2.108897   15.094588
 C    7.288605    2.681795   14.985550
 C    8.632350    2.320358   14.362996
 C    7.972617    0.113227   13.952158
 C    6.589423    0.319068   14.558408
 H   -2.738874   -1.331750   12.514853
 H   -3.917787   -2.606327   12.201494
 H   -6.163401   -2.376478   13.238254
 H   -7.621819   -1.173290   14.852229
 H   -6.655681    0.520866   16.403075
 H    0.254956    2.731426   17.663341
 H    2.662843    2.869060   17.172221
 H   -0.500199    0.543117   14.015718
 H    6.040550    2.014216   13.360786
 H   -3.994629   -3.764886   15.190811
 H   -3.943104   -4.691706   13.682459
 H   -2.964496   -6.044728   15.506969
 H   -1.820829   -4.737403   15.888651
 H   -0.001738   -5.334223   12.873200
 H   -0.062623   -4.322384   14.334820
 H   -0.815443   -2.989289   12.383345
 H   -2.023039   -4.220629   11.983151
 H   -1.949928   -2.530494   14.531990
 H   -1.862721    2.219047   17.036515
 H    1.923858    0.208236   12.575735
 H    4.985520    2.267433   16.089420
 H    7.348400    2.532577   16.073231
 H    7.049107    3.735346   14.802069
 H    8.618896    2.556337   13.284093
 H    9.447672    2.886245   14.822734
 H    7.935085    0.304229   12.864701
 H    8.319264   -0.913252   14.102651
 H    6.619733    0.038923   15.620300
 H    5.846374   -0.314132   14.061761
