62 
4wnm_ligand_xtb.xyz
 C   -3.503378   -1.919188   12.976614
 C   -4.703469    0.154559   15.852078
 C   -4.445019   -1.369442   13.997486
 C   -5.764479   -1.718239   14.138528
 C   -6.563548   -1.133651   15.133649
 C   -6.048129   -0.197704   15.991455
 N   -3.955284   -0.454189   14.856945
 N   -3.925180    0.999695   16.513538
 N   -2.702376    0.010354   14.895074
 O    8.814865    0.869988   14.620001
 C   -2.726566    0.880044   15.905976
 C   -0.357279    1.584339   15.932166
 C    0.543036    2.443667   16.600127
 C    1.874646    2.488788   16.272589
 C    2.335573    1.655248   15.255279
 C    1.426996    0.795872   14.591405
 C    0.075315    0.751406   14.915530
 C    3.595030    1.389480   14.626715
 C    6.007885    1.494960   14.368716
 O   -0.858649   -5.208474   13.831673
 C   -2.966630   -4.056494   14.239647
 C   -1.819486   -4.892085   14.811617
 C   -0.286520   -4.051798   13.267900
 C   -1.337836   -3.167166   12.594863
 C   -2.402649   -2.776965   13.620778
 N   -1.679710    1.613354   16.346303
 N    2.149830    0.113820   13.674541
 N    3.464642    0.468529   13.694995
 N    4.770478    2.042188   14.879512
 C    7.092681    2.571822   14.350419
 C    8.400260    1.964475   13.837564
 C    7.859201   -0.165863   14.621138
 C    6.516199    0.298133   15.185118
 H   -3.024638   -1.079542   12.465724
 H   -4.057138   -2.509242   12.245346
 H   -6.187782   -2.449631   13.469632
 H   -7.597774   -1.429745   15.216343
 H   -6.633534    0.271932   16.763028
 H    0.160562    3.078207   17.386891
 H    2.546127    3.156852   16.791518
 H   -0.615716    0.105197   14.404155
 H    5.790518    1.161678   13.348415
 H   -3.678807   -3.823952   15.033112
 H   -3.480673   -4.638393   13.471391
 H   -2.183627   -5.849532   15.189888
 H   -1.342018   -4.340723   15.637953
 H    0.448713   -4.408335   12.543205
 H    0.233230   -3.473443   14.049510
 H   -0.857940   -2.279172   12.180809
 H   -1.801563   -3.724514   11.778231
 H   -1.925289   -2.182441   14.406974
 H   -1.912089    2.224787   17.115479
 H    1.838028   -0.574526   13.012835
 H    4.831349    2.449501   15.802138
 H    7.247801    2.946771   15.364704
 H    6.793032    3.403559   13.713091
 H    8.269367    1.647422   12.790661
 H    9.214021    2.690957   13.888793
 H    7.713640   -0.541245   13.595999
 H    8.287147   -0.962518   15.233302
 H    6.648454    0.599049   16.227486
 H    5.792149   -0.515419   15.140450
