46 
4wno_ligand_xtb.xyz
 C   -2.930042  -40.408218  -19.129407
 C   -0.818118  -39.301141  -19.439438
 C   -4.252176  -39.861233  -17.043308
 C   -7.789613  -41.495546  -14.967191
 C   -9.467114  -40.220346  -13.503058
 C   -6.695994  -40.713030  -15.275947
 N   -7.790572  -37.101045  -10.996290
 C   -6.734547  -37.132537  -11.891286
 C   -5.417269  -37.021398  -11.447188
 C   -4.364553  -37.148358  -12.329638
 C   -6.959370  -37.343235  -13.251362
 C   -5.907906  -37.469328  -14.135763
 C   -4.593884  -37.394012  -13.681852
 N   -3.508104  -37.501845  -14.548129
 C   -3.395751  -38.250840  -15.676585
 N   -2.278727  -38.080334  -16.354827
 C   -2.139734  -38.789546  -17.491489
 C   -3.126000  -39.714936  -17.926517
 C   -1.795988  -40.203997  -19.873585
 C   -0.981650  -38.605733  -18.273253
 N   -5.195008  -40.797343  -17.309644
 C   -6.256915  -41.191400  -16.524241
 N   -7.019418  -42.191272  -16.953193
 N   -7.942767  -42.359770  -15.998475
 C   -8.708107  -41.485264  -13.824374
 C   -8.379027  -40.687543  -12.594590
 N   -4.384992  -39.114570  -15.968762
 H   -3.674736  -41.105662  -19.489212
 H    0.069581  -39.155192  -20.038068
 H   -9.273226  -39.362066  -14.126627
 H  -10.493450  -40.310847  -13.180881
 H   -6.251686  -39.927017  -14.707655
 H   -7.607715  -36.644356  -10.117067
 H   -8.692291  -36.886740  -11.391321
 H   -5.224197  -36.837501  -10.399880
 H   -3.349416  -37.057494  -11.970131
 H   -7.975905  -37.396466  -13.613704
 H   -6.095362  -37.618402  -15.186298
 H   -2.650531  -37.039870  -14.281926
 H   -1.653526  -40.740992  -20.799760
 H   -0.245214  -37.899587  -17.923710
 H   -5.087248  -41.354878  -18.143889
 H   -8.643925  -43.073792  -16.106698
 H   -9.242300  -42.419086  -13.686275
 H   -8.652680  -41.102649  -11.636768
 H   -7.454826  -40.132583  -12.583741
