46 
4wno_ligand_ani-2x.xyz
 C   -2.898063  -40.455810  -19.114946
 C   -0.728842  -39.433791  -19.402189
 C   -4.251522  -39.765334  -17.072697
 C   -7.738862  -41.313365  -14.816642
 C   -9.195198  -40.035855  -13.116502
 C   -6.603510  -40.610381  -15.172044
 N   -8.130058  -37.509121  -11.376483
 C   -6.989217  -37.386523  -12.166798
 C   -5.711115  -37.516874  -11.613004
 C   -4.579394  -37.485992  -12.414378
 C   -7.087559  -37.217516  -13.553683
 C   -5.959335  -37.224780  -14.358946
 C   -4.686819  -37.372604  -13.802069
 N   -3.527710  -37.387362  -14.606612
 C   -3.355465  -38.160581  -15.731702
 N   -2.218170  -38.039538  -16.375469
 C   -2.086721  -38.803412  -17.501594
 C   -3.093507  -39.701647  -17.931467
 C   -1.735467  -40.322126  -19.837482
 C   -0.899169  -38.692293  -18.260259
 N   -5.250940  -40.660425  -17.336517
 C   -6.306137  -41.027085  -16.488922
 N   -7.181199  -41.923334  -16.924244
 N   -8.033513  -42.079885  -15.893167
 C   -8.555888  -41.319509  -13.587200
 C   -8.027503  -40.602699  -12.371542
 N   -4.395622  -38.982224  -16.030308
 H   -3.660949  -41.144858  -19.472102
 H    0.187628  -39.337605  -19.978878
 H   -9.027219  -39.161456  -13.738105
 H  -10.177875  -40.100476  -12.660802
 H   -6.033619  -39.900658  -14.602580
 H   -7.987195  -37.352649  -10.388722
 H   -8.947776  -37.022555  -11.718834
 H   -5.610640  -37.647648  -10.536462
 H   -3.594415  -37.577195  -11.961382
 H   -8.069409  -37.104484  -14.009500
 H   -6.067964  -37.140181  -15.435704
 H   -2.693158  -36.916020  -14.289118
 H   -1.588763  -40.902476  -20.744145
 H   -0.140013  -38.001038  -17.906892
 H   -5.188833  -41.219542  -18.173759
 H   -8.825310  -42.693375  -15.999701
 H   -9.120536  -42.235051  -13.417452
 H   -8.194957  -41.047334  -11.394617
 H   -7.064493  -40.114334  -12.507377
