49 
4wov_ligand_dft.xyz
 C   13.374768    3.406115    0.130655
 C   14.540873    3.834092   -0.753959
 C   11.299798    2.489905    1.661305
 C   11.577787    3.850385    1.639315
 C   14.573827    2.241175   -2.565369
 C   14.867881    0.779947   -2.886046
 C   15.613700   -1.257154   -1.972381
 C   12.101176    1.638179    0.896007
 C   14.240274   -4.959203   -1.941278
 N    9.794901   -3.861578    1.829932
 C    9.857429   -5.209585    1.558949
 N   10.833090   -5.535328    0.756579
 C   11.454805   -4.333778    0.479157
 C   10.824592   -3.282908    1.133999
 C   11.294956   -1.960980    0.979886
 C   12.412601   -1.871419    0.118934
 N   12.763649   -0.559235    0.046937
 C   11.912896    0.193313    0.829686
 C   10.991381   -0.643593    1.421964
 N   13.116332    2.104382    0.154633
 C   12.630444    4.328228    0.865833
 N   15.152200    2.705432   -1.417082
 O   13.910975    2.920107   -3.328397
 O   15.180011    0.064290   -1.712009
 N   13.055657   -2.860365   -0.541487
 C   12.585716   -4.085345   -0.357909
 N   13.193408   -5.137306   -0.966982
 C    8.840906   -3.176379    2.671967
 H   15.291707    4.361634   -0.155486
 H   14.188584    4.521637   -1.527472
 H   10.482103    2.096182    2.255353
 H   10.972283    4.538031    2.222624
 H   15.707570    0.738676   -3.597632
 H   13.980901    0.367725   -3.383321
 H   15.794579   -1.729031   -1.006191
 H   14.837687   -1.831936   -2.491497
 H   16.537686   -1.249486   -2.568102
 H   14.581330   -5.941894   -2.273861
 H   13.899409   -4.384892   -2.813451
 H   15.086836   -4.424704   -1.498167
 H    9.142572   -5.896974    1.993158
 H   13.535396   -0.174416   -0.493957
 H   10.195366   -0.341605    2.088519
 H   12.865270    5.387591    0.826800
 H   15.453018    1.958898   -0.802068
 H   12.716959   -6.022561   -0.897388
 H    8.141288   -3.906078    3.084361
 H    9.353124   -2.670857    3.496043
 H    8.281299   -2.437329    2.090896
