34 
4wr8_ligand_xtb.xyz
 O   44.518695  -22.741611   66.848498
 C   44.565305  -23.386973   68.039559
 C   45.734925  -23.298508   68.793487
 C   45.824393  -23.935903   70.010158
 C   43.493704  -24.127764   68.525230
 C   43.581624  -24.770367   69.745857
 C   44.746766  -24.674522   70.496335
 N   44.877576  -25.308799   71.736345
 C   43.945868  -25.942670   72.487691
 N   46.058947  -25.355590   72.372042
 N   45.923750  -25.980434   73.464771
 C   44.632660  -26.376578   73.609758
 C   44.151802  -27.117015   74.764849
 C   42.762354  -27.354511   74.930094
 N   45.047270  -27.540424   75.621908
 C   44.650341  -28.228182   76.703719
 C   43.281515  -28.521387   76.959933
 C   42.336488  -28.052923   76.022245
 C   45.629513  -28.675670   77.616531
 C   45.261809  -29.379940   78.728434
 C   43.910276  -29.669000   78.980000
 C   42.938066  -29.249080   78.114674
 H   43.662935  -22.881699   66.425032
 H   46.559037  -22.723403   68.404290
 H   46.721382  -23.879996   70.605144
 H   42.584786  -24.205342   67.943783
 H   42.740314  -25.347077   70.096357
 H   42.922419  -26.035437   72.196120
 H   42.059087  -26.980070   74.202377
 H   41.285339  -28.253050   76.183480
 H   46.660044  -28.441261   77.402226
 H   46.010986  -29.722381   79.427410
 H   43.644697  -30.227455   79.865812
 H   41.895828  -29.467876   78.302650
