55 
4wyo_ligand_ani-2x.xyz
 C   11.334946  -10.286343  -18.763116
 C   10.270869  -10.969435  -22.453025
 C   10.838836  -11.201502  -21.056282
 C    5.662260   -9.052479  -15.385348
 C    7.204294  -11.374166  -15.429580
 C    4.613312   -8.153519  -15.225858
 C   10.214805   -7.350062  -22.435574
 C   10.491732  -10.101726  -20.027731
 C    8.998154  -10.108582  -19.661534
 C    8.689224   -9.100956  -18.549255
 N    9.534637   -9.322110  -17.374104
 C   10.958831   -9.260035  -17.695337
 O   10.855783   -8.794068  -20.539395
 O    9.976123  -11.863264  -23.215930
 C    9.178373  -10.159521  -16.334424
 C    7.748543  -10.135152  -15.884290
 O    9.995953  -10.895333  -15.799155
 C    7.000920   -8.976127  -15.843886
 C    5.912328  -11.480760  -14.993960
 C    5.110354  -10.302491  -14.971593
 N    3.579669   -8.878402  -14.757178
 N    3.831821  -10.179765  -14.587049
 C   10.436837   -8.550410  -21.798956
 C   10.160456   -9.536551  -22.757351
 N    9.777132   -8.993716  -23.912497
 N    9.817695   -7.677052  -23.696800
 C    9.438130   -6.786719  -24.823667
 C    7.993244   -7.095813  -25.238159
 C    9.547762   -5.322159  -24.394083
 C   10.381317   -7.049517  -26.005241
 H   11.167953  -11.294789  -18.365464
 H   12.398368  -10.197135  -19.014220
 H   10.504864  -12.176728  -20.690742
 H   11.932922  -11.243773  -21.151552
 H    7.854583  -12.243650  -15.439078
 H    4.532839   -7.089535  -15.405502
 H   10.298689   -6.329001  -22.088794
 H    8.394796   -9.886375  -20.548898
 H    8.723900  -11.116078  -19.326833
 H    8.880932   -8.086503  -18.914262
 H    7.637898   -9.171511  -18.266825
 H   11.514273   -9.441249  -16.774187
 H   11.181753   -8.250363  -18.054077
 H    7.431641   -8.027000  -16.140508
 H    5.488904  -12.420609  -14.662730
 H    2.656355   -8.536215  -14.529157
 H    7.300730   -6.893665  -24.414958
 H    7.711281   -6.467095  -26.088644
 H    7.897040   -8.146888  -25.525512
 H    8.876670   -5.106800  -23.555727
 H   10.572717   -5.075029  -24.097547
 H    9.269158   -4.669646  -25.227360
 H   11.416108   -6.815109  -25.736288
 H   10.328302   -8.099458  -26.307408
 H   10.093981   -6.420060  -26.853370
