55 
4wyo_ligand_xtb.xyz
 C   11.394208  -10.264623  -18.772217
 C   10.033905  -10.962553  -22.364748
 C   10.799144  -11.158830  -21.055131
 C    5.681586   -9.058811  -15.359571
 C    7.216884  -11.322072  -15.799914
 C    4.622350   -8.204236  -15.066385
 C   10.215824   -7.362114  -22.446104
 C   10.505074  -10.074999  -20.007550
 C    9.026822  -10.132485  -19.581651
 C    8.746721   -9.120413  -18.466544
 N    9.621826   -9.361301  -17.346406
 C   11.025093   -9.257278  -17.683212
 O   10.807165   -8.764491  -20.513215
 O    9.601814  -11.883570  -23.015246
 C    9.256442   -9.929064  -16.170082
 C    7.785341  -10.028462  -15.908285
 O   10.071879  -10.304911  -15.347946
 C    7.038495   -8.900421  -15.685652
 C    5.899447  -11.510204  -15.497372
 C    5.106453  -10.371768  -15.272153
 N    3.561880   -8.997033  -14.841301
 N    3.810151  -10.292041  -14.954969
 C   10.374385   -8.554817  -21.774801
 C    9.964365   -9.550438  -22.692399
 N    9.584170   -8.976810  -23.834514
 N    9.745838   -7.683767  -23.679064
 C    9.424343   -6.808216  -24.801521
 C    7.955003   -7.044680  -25.160897
 C    9.655700   -5.347309  -24.429217
 C   10.326176   -7.213427  -25.970680
 H   11.262685  -11.277779  -18.391291
 H   12.438816  -10.127244  -19.053000
 H   10.570590  -12.144391  -20.649883
 H   11.864499  -11.134695  -21.307359
 H    7.864875  -12.170923  -15.961190
 H    4.563520   -7.136847  -15.006814
 H   10.417437   -6.362076  -22.130544
 H    8.384483   -9.920662  -20.438714
 H    8.801362  -11.138661  -19.225898
 H    8.935346   -8.107984  -18.842651
 H    7.705939   -9.193621  -18.150614
 H   11.598869   -9.450268  -16.775417
 H   11.226735   -8.242825  -18.040159
 H    7.478124   -7.915423  -15.746917
 H    5.464677  -12.493503  -15.419525
 H    2.627439   -8.701092  -14.598291
 H    7.309219   -6.746821  -24.337614
 H    7.686344   -6.468785  -26.041713
 H    7.797105   -8.100397  -25.362754
 H    9.027886   -5.052662  -23.591482
 H   10.698088   -5.167760  -24.176662
 H    9.401036   -4.721067  -25.280132
 H   11.371451   -7.044972  -25.720681
 H   10.185881   -8.268673  -26.187616
 H   10.080109   -6.631726  -26.854329
