54 
4wz8_ligand_aiqm1.xyz
 C    6.806986  -11.542040  -16.232480
 C    5.485129  -11.566872  -15.907425
 C    6.996394   -9.125418  -15.910950
 C    4.702538   -8.148630  -15.156007
 C   10.690744   -6.829903  -22.503428
 C    5.620600   -9.120969  -15.552927
 C    7.569103  -10.321581  -16.257956
 C   10.782564   -8.070828  -21.857548
 C    4.867213  -10.332382  -15.563234
 C   10.266328   -8.970198  -22.781044
 C   10.097531  -10.400772  -22.500887
 C    9.026285  -10.445202  -16.577118
 C   11.262785   -8.476009  -20.494917
 C   10.718881  -10.827274  -21.188965
 C   11.315126  -10.370925  -18.810052
 C    9.104506   -9.592636  -19.701373
 C   11.042938   -9.554162  -17.547773
 C    8.907204   -8.793582  -18.410262
 C   10.595540   -9.798840  -20.043142
 C    9.761818   -8.035376  -26.320175
 C    7.734945   -8.576881  -24.910925
 C    9.235162   -8.757995  -25.093050
 N    3.543493   -8.805380  -14.972896
 N   10.161920   -6.958875  -23.727429
 N    3.586635  -10.124478  -15.204055
 N    9.920389   -8.258447  -23.887210
 N    9.611031   -9.424983  -17.295198
 O    9.512301  -11.169601  -23.240593
 O    9.672768  -11.398356  -16.168252
 H    7.334144  -12.456899  -16.466709
 H    4.916966  -12.486912  -15.889881
 H    7.584907   -8.214444  -15.895467
 H    4.779545   -7.087919  -14.996080
 H   10.975768   -5.851844  -22.153572
 H   12.346874   -8.635472  -20.516705
 H   11.080189   -7.675610  -19.775732
 H   10.267547  -11.780242  -20.899641
 H   11.784786  -11.010576  -21.376089
 H   10.969712  -11.393175  -18.638364
 H   12.390690  -10.419119  -18.999973
 H    8.589272   -9.099075  -20.527859
 H    8.642816  -10.578652  -19.577928
 H   11.491293  -10.027130  -16.678035
 H   11.458947   -8.546949  -17.643901
 H    9.287722   -7.776135  -18.523493
 H    7.848552   -8.727614  -18.178998
 H   10.841855   -8.151789  -26.409952
 H    9.284777   -8.446620  -27.209313
 H    9.531947   -6.972170  -26.260434
 H    7.380366   -9.136271  -24.043876
 H    7.501062   -7.518837  -24.773924
 H    7.211265   -8.938873  -25.795568
 H    9.470716   -9.818617  -25.156336
 H    2.670425   -8.402460  -14.681898
