28 
4x0u_ligand_dft.xyz
 C    3.882735   -0.324868   -0.075299
 O    4.647065    0.582391    0.184061
 C    2.418886   -0.226886   -0.052811
 C    1.781642    0.972754    0.283511
 C    0.405663    1.070325    0.302359
 C   -0.410767   -0.044507   -0.013534
 C    0.242452   -1.253245   -0.349282
 C    1.623384   -1.330021   -0.368164
 N   -1.782025    0.046984    0.005317
 C   -2.629275   -1.040354   -0.457261
 C   -2.950669   -2.064657    0.631466
 C   -2.466520    1.235570    0.489068
 C   -2.682056    2.294426   -0.592508
 H    4.275183   -1.327591   -0.357856
 H    2.395553    1.835831    0.523426
 H   -0.041702    2.026160    0.546566
 H   -0.329838   -2.143646   -0.578972
 H    2.096455   -2.275428   -0.627075
 H   -2.163076   -1.524434   -1.321155
 H   -3.558000   -0.596287   -0.832427
 H   -2.037084   -2.524329    1.020318
 H   -3.466836   -1.585608    1.470092
 H   -3.597735   -2.856144    0.238975
 H   -1.917357    1.653499    1.338410
 H   -3.434266    0.915710    0.891138
 H   -1.727642    2.632998   -1.006633
 H   -3.278598    1.887777   -1.415949
 H   -3.210249    3.162261   -0.183830
