28 
4x0u_ligand_xtb.xyz
 C   60.802930   68.496253   12.976823
 O   60.470252   69.353092   13.764495
 C   61.735322   68.665227   11.877392
 C   62.345486   69.901267   11.638786
 C   63.231065   70.071893   10.605389
 C   63.557574   69.009834    9.738307
 C   62.935403   67.769647    9.984562
 C   62.054416   67.605651   11.024984
 N   64.435176   69.174430    8.707982
 C   64.922879   68.060385    7.924768
 C   64.026288   67.750634    6.724445
 C   64.941342   70.475359    8.327985
 C   66.212888   70.854872    9.089199
 H   60.388660   67.468399   13.055030
 H   62.107168   70.723603   12.296992
 H   63.684743   71.040755   10.477707
 H   63.133047   66.923646    9.347109
 H   61.592937   66.640754   11.183933
 H   65.019337   67.178114    8.561650
 H   65.925853   68.312994    7.569586
 H   63.020379   67.500991    7.051259
 H   63.964136   68.612922    6.064670
 H   64.431132   66.913120    6.162421
 H   64.167674   71.230215    8.485329
 H   65.156237   70.451878    7.255956
 H   66.026006   70.880564   10.159396
 H   67.000099   70.128809    8.899561
 H   66.560570   71.833792    8.769885
