28 
4x0u_ligand_ani-2x.xyz
 C   60.789821   68.482918   12.982794
 O   60.480279   69.347902   13.771784
 C   61.742807   68.669649   11.869281
 C   62.365141   69.900926   11.656450
 C   63.256155   70.070173   10.611507
 C   63.563459   69.009647    9.732998
 C   62.927803   67.771123    9.960853
 C   62.035934   67.613248   11.010223
 N   64.454472   69.178296    8.688164
 C   64.915719   68.053092    7.896344
 C   63.995652   67.703257    6.726272
 C   64.969693   70.487576    8.333316
 C   66.212075   70.897460    9.124780
 H   60.352704   67.462742   13.061951
 H   62.133011   70.726474   12.323745
 H   63.726796   71.038892   10.482229
 H   63.123078   66.926190    9.309786
 H   61.561231   66.645774   11.168236
 H   65.057750   67.182770    8.549478
 H   65.911069   68.308883    7.509162
 H   62.986460   67.453113    7.071345
 H   63.911435   68.547002    6.030469
 H   64.389580   66.845507    6.169672
 H   64.174455   71.234878    8.448520
 H   65.214341   70.466031    7.262920
 H   66.011551   70.918932   10.201575
 H   67.034861   70.192998    8.951905
 H   66.551668   71.893647    8.819843
