46 
4x1f_ligand_ani-2x.xyz
 C   -1.613763    2.177747   -0.479851
 C   -1.703882    1.079849    0.591981
 C   -0.627607    1.316804    1.659690
 C    0.784164    1.123194    1.085348
 C    0.968000   -0.227513    0.360195
 C    2.354555   -0.419009   -0.248017
 C    3.489619    0.185173    0.305252
 C    4.762961   -0.028763   -0.201014
 C    4.932385   -0.871373   -1.297174
 O    6.151822   -1.130437   -1.846018
 C    3.819674   -1.477728   -1.866551
 C    2.539578   -1.257752   -1.359549
 C    1.369731   -1.916203   -2.069303
 C    0.068218   -1.883389   -1.272174
 C   -0.147354   -0.493319   -0.678464
 C   -1.502236   -0.328454    0.002432
 C   -2.783579   -0.573422   -0.805828
 C   -3.889952    0.203300   -0.036917
 C   -3.175364    1.008986    1.091908
 O   -3.700650    2.319627    1.241437
 C   -3.302473    0.292025    2.381498
 C   -3.454257   -0.258937    3.441845
 H   -1.766946    3.156361   -0.018541
 H   -0.635527    2.183207   -0.967156
 H   -2.366708    2.066468   -1.266620
 H   -0.744960    2.324160    2.077513
 H   -0.771676    0.611986    2.488810
 H    1.498734    1.193696    1.912377
 H    1.032817    1.941448    0.396049
 H    0.843522   -1.011300    1.130076
 H    3.391529    0.848729    1.158697
 H    5.621559    0.459298    0.257859
 H    6.825277   -0.645291   -1.353277
 H    3.965033   -2.128128   -2.725668
 H    1.219161   -1.397227   -3.027283
 H    1.634118   -2.948294   -2.329046
 H   -0.769432   -2.173654   -1.919666
 H    0.109182   -2.622643   -0.459000
 H   -0.052187    0.233943   -1.498650
 H   -1.503401   -1.038894    0.848109
 H   -2.677712   -0.178409   -1.824094
 H   -3.014908   -1.640437   -0.899193
 H   -4.414584    0.912009   -0.686463
 H   -4.649408   -0.460313    0.387975
 H   -4.522851    2.225047    1.737798
 H   -3.590023   -0.752067    4.379968
