37 
4x47_ligand_xtb.xyz
 C    0.112283    4.072932    1.535440
 C   -0.354132    2.743872    1.061078
 C   -1.519215    2.237263    1.469379
 C   -1.976341    0.850867    1.117306
 C   -0.815982    0.088270    0.430627
 C   -0.072288    1.041383   -0.511516
 C    1.071559    0.441343   -1.346176
 C    2.193793   -0.275764   -0.573459
 C    1.890247   -1.721344   -0.149357
 C   -1.776561   -2.180049    0.193202
 C   -2.051447   -3.265401   -0.820018
 N   -1.286679   -1.045105   -0.344493
 O    1.321350    4.390991    1.071813
 O   -0.522839    4.791983    2.262963
 O   -2.380047    0.240063    2.311201
 O    0.493322    2.129260    0.187059
 O    0.529212   -0.385247   -2.354851
 O    3.285184   -0.294033   -1.470036
 O    3.116833   -2.269002    0.295270
 O   -1.996875   -2.308180    1.384769
 H   -2.126057    2.784523    2.170103
 H   -2.827833    0.902792    0.410588
 H   -0.146784   -0.246610    1.234443
 H   -0.813370    1.426355   -1.233867
 H    1.568611    1.308239   -1.809418
 H    2.443870    0.320341    0.315608
 H    1.144942   -1.753421    0.648641
 H    1.514100   -2.286890   -1.013547
 H   -2.335475   -4.176747   -0.302143
 H   -2.868973   -2.956623   -1.467717
 H   -1.173448   -3.448470   -1.434155
 H   -1.055521   -1.024926   -1.328165
 H    1.589726    5.259202    1.412950
 H   -2.364496   -0.730577    2.188139
 H    1.271948   -0.660564   -2.907826
 H    3.960707   -0.861672   -1.075360
 H    2.956778   -3.138756    0.672925
