37 
4x47_ligand_ani-2x.xyz
 C    0.163459    4.002516    1.633706
 C   -0.324786    2.693377    1.118419
 C   -1.522026    2.229506    1.471933
 C   -2.017865    0.869334    1.073307
 C   -0.850291    0.074002    0.421758
 C   -0.057871    1.025174   -0.480559
 C    1.062899    0.492264   -1.369192
 C    2.248276   -0.181624   -0.675433
 C    1.935821   -1.515917    0.005651
 C   -1.815315   -2.191413    0.176567
 C   -2.041556   -3.339267   -0.781224
 N   -1.339299   -1.045093   -0.369990
 O    1.399697    4.311802    1.222465
 O   -0.497423    4.715907    2.355442
 O   -2.538840    0.234235    2.210291
 O    0.549840    2.038378    0.322107
 O    0.528488   -0.388431   -2.347030
 O    3.153374   -0.441246   -1.741729
 O    3.190826   -2.163771    0.205638
 O   -2.043693   -2.314768    1.380323
 H   -2.157450    2.838944    2.100202
 H   -2.808670    0.991201    0.310571
 H   -0.230046   -0.274799    1.254137
 H   -0.782055    1.510767   -1.153563
 H    1.477618    1.372735   -1.877507
 H    2.694832    0.514131    0.049810
 H    1.437131   -1.374291    0.971237
 H    1.290626   -2.109104   -0.655976
 H   -2.989012   -3.819726   -0.527417
 H   -2.054142   -3.036588   -1.832171
 H   -1.249902   -4.082198   -0.636733
 H   -1.021475   -1.060261   -1.334438
 H    1.595411    5.176332    1.622021
 H   -2.477911   -0.733614    2.075145
 H    1.310078   -0.761407   -2.786761
 H    3.737779   -1.141009   -1.407378
 H    3.043575   -3.115779    0.227769
