44 
4x50_ligand_ani-2x.xyz
 C   -4.208788    0.183519    0.106428
 C   -2.922783   -0.548396   -0.281037
 C   -3.183799   -1.826068   -1.060372
 C   -3.871757    1.530350    0.727367
 C    4.794896   -1.391442    1.220651
 C    6.090329   -1.893897    1.173698
 C    6.913254   -1.606019    0.088245
 C    6.427592   -0.819019   -0.952456
 C    5.126581   -0.330948   -0.910009
 C    4.292888   -0.606035    0.178341
 C    2.907182   -0.076665    0.223546
 C    2.387682    0.486086    1.395126
 C    1.102086    0.992709    1.440170
 C    2.079957   -0.121060   -0.899784
 C    0.778519    0.363116   -0.872130
 C    0.289590    0.930156    0.304291
 O   -0.968750    1.451199    0.447145
 C   -1.812741    1.536013   -0.679018
 O   -2.157555    0.267753   -1.169155
 O   -3.960011   -2.700358   -0.244948
 O   -4.971617   -0.512287    1.067865
 O   -5.061110    2.261031    0.960236
 C   -3.028231    2.344181   -0.241372
 O   -3.784875    2.647651   -1.390300
 H   -4.792824    0.368217   -0.811847
 H   -2.352729   -0.782449    0.630779
 H   -2.226628   -2.286611   -1.334896
 H   -3.723295   -1.558886   -1.979643
 H   -3.320626    1.369255    1.665954
 H    4.153457   -1.626555    2.067443
 H    6.459914   -2.506171    1.992133
 H    7.928024   -1.993303    0.053420
 H    7.060883   -0.589823   -1.805531
 H    4.753675    0.289866   -1.722104
 H    3.016279    0.546000    2.281197
 H    0.709528    1.436899    2.349555
 H    2.456155   -0.565068   -1.819481
 H    0.166083    0.296735   -1.763650
 H   -1.285857    2.051760   -1.489173
 H   -4.314069   -3.408948   -0.793348
 H   -4.949007   -1.451956    0.819372
 H   -5.683711    1.639334    1.366879
 H   -2.673857    3.257287    0.260595
 H   -4.640236    2.952943   -1.051880
