50 
4x5q_ligand_ani-2x.xyz
 O   -5.868085   -0.594587   -2.525145
 C   -3.958492    0.744861    0.401410
 C   -4.341531    1.347343    1.742366
 O   -4.987632   -2.398619   -0.715990
 C   -0.690112   -0.423056   -0.514546
 N    8.401360   -0.737526   -0.553685
 C    0.299845    0.100655   -1.349830
 C    1.571286    0.337145   -0.857424
 C    1.872976    0.060157    0.478311
 O   -1.912278   -0.629475   -1.102549
 C    0.875937   -0.447857    1.306848
 O    9.271037   -0.233853    0.136240
 C   -0.401766   -0.698375    0.820789
 C    3.412405    1.082241    2.142284
 C    4.751634    1.225842    2.332531
 O    8.610905   -1.431947   -1.533302
 C    5.403883    0.511937    1.268932
 C    4.385878   -0.047359    0.464130
 C    7.001048   -0.491107   -0.179308
 C    6.744893    0.288121    0.928029
 C    5.992113   -1.069554   -0.967018
 C    4.666141   -0.855008   -0.645660
 N    3.163285    0.323696    1.010493
 C   -2.927075   -1.274691   -0.368036
 O   -3.347264   -0.504497    0.726662
 O   -4.975414    2.602309    1.507654
 C   -5.165181    0.502744   -0.506844
 O   -5.763288    1.697168   -0.960806
 C   -4.732119   -0.253958   -1.753074
 C   -4.055604   -1.555628   -1.352714
 H   -6.417064    0.203346   -2.562822
 H   -3.248295    1.410073   -0.112699
 H   -3.441247    1.467845    2.357665
 H   -5.022628    0.647919    2.246760
 H   -5.776874   -2.366680   -1.277630
 H    0.060858    0.310830   -2.387506
 H    2.345381    0.742021   -1.504426
 H    1.111547   -0.665650    2.345797
 H   -1.156623   -1.092073    1.491497
 H    2.576811    1.479543    2.704059
 H    5.241435    1.774384    3.125980
 H    7.568809    0.698761    1.499391
 H    6.270110   -1.677990   -1.818179
 H    3.872117   -1.305367   -1.233360
 H   -2.537743   -2.213368    0.041071
 H   -5.413901    2.888472    2.316374
 H   -5.889586   -0.126112    0.039240
 H   -5.779869    2.309057   -0.205432
 H   -4.036963    0.371044   -2.333405
 H   -3.624659   -2.033280   -2.245729
