69 
4x7h_ligand_xtb.xyz
 N  -11.870445   30.705365   35.538644
 N  -13.459743   31.827805   27.092910
 C  -11.397646   31.965489   35.547865
 C  -11.539266   32.844996   34.445779
 C  -11.018166   34.152979   34.523989
 C  -12.491603   30.289772   34.467939
 C  -12.694424   31.061011   33.318133
 C   -9.399463   33.428526   38.973790
 C  -11.902707   31.695013   30.425760
 C  -13.106287   32.084280   28.403381
 C  -12.972308   30.864725   26.257060
 C  -14.545265   31.907119   24.482034
 C  -14.361050   29.742323   21.606561
 C  -15.504427   32.397129   22.240688
 C  -17.453051   33.707109   21.759461
 C  -15.705776   33.516489   20.129369
 C  -12.481499   28.900219   23.788731
 O   -9.582919   34.233275   37.834793
 C  -10.232610   33.698323   36.771892
 C  -10.732930   32.426111   36.704480
 C  -10.377996   34.584176   35.653782
 O   -9.841332   35.818448   35.834249
 C   -9.949534   36.748050   34.784924
 C  -12.207795   32.350913   33.298117
 O  -12.377326   33.223556   32.263846
 C  -12.605521   32.757269   30.993252
 C  -12.154084   31.347627   29.114866
 C  -13.518649   33.438462   30.193378
 N  -13.760321   33.111118   28.941469
 O  -12.112855   30.053948   26.555950
 C  -13.600648   30.908881   24.928484
 O  -15.058304   32.843293   25.075572
 N  -14.784489   31.602958   23.146493
 C  -16.743523   32.897710   22.626983
 C  -16.943713   34.008982   20.507335
 C  -14.978064   32.719797   20.993595
 N  -14.014884   30.520928   22.766446
 C  -13.344937   30.076991   23.856986
 C  -12.576570   27.885476   24.737254
 C  -11.724891   26.798595   24.622745
 N  -10.830633   26.667955   23.658191
 C  -10.739121   27.632726   22.760587
 C  -11.537028   28.765040   22.772441
 H  -14.156870   32.473015   26.712648
 H  -11.145083   34.793219   33.666443
 H  -12.865690   29.274592   34.504121
 H  -13.231383   30.652016   32.476089
 H  -10.357132   33.118331   39.403747
 H   -8.801709   32.540499   38.745011
 H   -8.865049   34.050614   39.689914
 H  -11.164247   31.158917   31.004558
 H  -15.421308   29.869682   21.383397
 H  -13.782412   30.046493   20.731752
 H  -14.160739   28.690463   21.807669
 H  -18.411555   34.099537   22.062682
 H  -15.296151   33.763640   19.161472
 H  -10.645146   31.730410   37.521807
 H   -9.439892   36.396398   33.881832
 H  -10.995883   36.966065   34.547343
 H   -9.464060   37.654125   35.143696
 H  -11.630311   30.536099   28.639130
 H  -14.069825   34.281879   30.585449
 H  -17.127661   32.665866   23.606648
 H  -17.504601   34.635183   19.830598
 H  -13.997221   32.369845   20.709953
 H  -13.290227   27.950079   25.541202
 H  -11.760714   25.988740   25.338756
 H   -9.989728   27.489367   21.993142
 H  -11.411206   29.536072   22.027840
