69 
4x7h_ligand_aiqm1.xyz
 N  -12.807629   31.246146   35.510482
 N  -13.211718   31.730527   27.073355
 C  -11.946020   32.301359   35.551336
 C  -11.480775   32.969279   34.400001
 C  -10.580555   34.067560   34.522132
 C  -13.209371   30.854864   34.318775
 C  -12.814271   31.441935   33.095253
 C  -10.591989   33.655392   39.282188
 C  -11.140253   31.778343   30.132719
 C  -12.685457   32.012863   28.332007
 C  -12.742272   30.839442   26.158342
 C  -14.677831   31.667964   24.634087
 C  -14.797198   29.409028   21.920238
 C  -15.817379   32.217673   22.497385
 C  -17.747485   33.586672   22.099228
 C  -15.998941   33.460119   20.445119
 C  -12.316788   28.989669   23.522345
 O  -10.151774   34.294910   38.095434
 C  -10.631788   33.802178   36.932726
 C  -11.496267   32.747491   36.821037
 C  -10.161550   34.480085   35.757009
 O   -9.311983   35.505962   35.998875
 C   -8.827640   36.203723   34.864755
 C  -11.943235   32.505885   33.150142
 O  -11.467285   33.183513   32.060399
 C  -11.875753   32.736473   30.820178
 C  -11.541632   31.399876   28.858343
 C  -12.993822   33.282384   30.211772
 N  -13.391506   32.930799   28.988081
 O  -11.759970   30.130270   26.326498
 C  -13.537272   30.800114   24.910549
 O  -15.213594   32.521828   25.330229
 N  -15.097716   31.329794   23.350070
 C  -17.050325   32.708326   22.921379
 C  -17.230258   33.961000   20.859306
 C  -15.283857   32.588803   21.263738
 N  -14.184820   30.415462   22.787701
 C  -13.316481   30.041466   23.795806
 C  -12.108457   27.922297   24.394837
 C  -11.163492   26.959735   24.047890
 N  -10.441988   26.988819   22.923226
 C  -10.649975   28.019879   22.098598
 C  -11.571478   29.033925   22.342838
 H  -14.026984   32.281031   26.818801
 H  -10.243694   34.558744   33.623533
 H  -13.895846   30.016078   34.298417
 H  -13.194308   31.060826   32.156875
 H  -11.676585   33.726388   39.390211
 H  -10.296571   32.603889   39.297223
 H  -10.109867   34.180296   40.100581
 H  -10.268904   31.337454   30.600069
 H  -15.535300   28.821351   22.471181
 H  -15.283319   29.906385   21.084554
 H  -14.017083   28.760656   21.528747
 H  -18.698558   33.982615   22.430156
 H  -15.585726   33.753091   19.489321
 H  -11.870300   32.215930   37.682067
 H   -8.263891   35.540756   34.204519
 H   -9.645884   36.658065   34.301690
 H   -8.173150   36.979877   35.247181
 H  -10.995413   30.663133   28.293457
 H  -13.585924   34.028372   30.726469
 H  -17.423696   32.432391   23.895871
 H  -17.778862   34.643695   20.225522
 H  -14.321283   32.195734   20.961231
 H  -12.631946   27.862069   25.337480
 H  -10.975181   26.126374   24.713692
 H  -10.052730   28.037372   21.195043
 H  -11.698744   29.845694   21.636793
