69 
4x7h_ligand_ani-2x.xyz
 N  -12.642210   31.096526   35.489471
 N  -13.297570   31.836851   27.097409
 C  -11.845812   32.197081   35.564638
 C  -11.475459   32.953228   34.433421
 C  -10.643173   34.098774   34.586158
 C  -13.070223   30.745601   34.299930
 C  -12.769005   31.417231   33.093429
 C  -10.426081   33.408381   39.315905
 C  -11.189427   31.978764   30.120201
 C  -12.788782   32.146490   28.361261
 C  -12.780696   30.975708   26.162658
 C  -14.738232   31.701242   24.590318
 C  -15.062086   29.186285   22.279931
 C  -15.752824   32.209286   22.376268
 C  -17.503356   33.764074   21.842267
 C  -15.915284   33.123368   20.150911
 C  -12.298921   29.083393   23.517091
 O  -10.077968   34.143491   38.163050
 C  -10.570935   33.695809   36.985930
 C  -11.371970   32.595838   36.844222
 C  -10.195252   34.470535   35.827383
 O   -9.402151   35.537046   36.085828
 C   -9.010063   36.323077   34.983317
 C  -11.963270   32.525235   33.170437
 O  -11.588617   33.287563   32.097550
 C  -11.973151   32.872086   30.840121
 C  -11.594647   31.600389   28.852771
 C  -13.134391   33.361307   30.271412
 N  -13.538298   33.008372   29.051778
 O  -11.746938   30.340697   26.327625
 C  -13.581072   30.876415   24.915806
 O  -15.321436   32.569336   25.234821
 N  -15.121087   31.336403   23.302592
 C  -16.861607   32.953886   22.772115
 C  -17.035984   33.854045   20.534123
 C  -15.274268   32.299079   21.066784
 N  -14.296592   30.309196   22.832930
 C  -13.354695   30.064684   23.814296
 C  -11.910315   28.129292   24.450309
 C  -10.950638   27.188837   24.089858
 N  -10.357987   27.142925   22.895652
 C  -10.730798   28.067690   22.009213
 C  -11.687198   29.043080   22.261716
 H  -14.152418   32.328971   26.846321
 H  -10.384831   34.655183   33.690667
 H  -13.707452   29.862165   34.263364
 H  -13.169177   31.052218   32.152851
 H  -11.512443   33.402972   39.473303
 H  -10.061726   32.374650   39.255682
 H   -9.942268   33.913905   40.152447
 H  -10.278357   31.585502   30.563246
 H  -15.782722   28.801250   23.013273
 H  -15.606055   29.525630   21.394465
 H  -14.374100   28.391201   21.980734
 H  -18.373708   34.338243   22.150422
 H  -15.540135   33.187776   19.132713
 H  -11.681337   31.984349   37.683212
 H   -8.429548   35.734541   34.261456
 H   -9.879941   36.761714   34.477962
 H   -8.385084   37.120398   35.387448
 H  -11.024187   30.909508   28.248058
 H  -13.755699   34.054474   30.833719
 H  -17.203967   32.896011   23.798090
 H  -17.542161   34.494735   19.816969
 H  -14.406376   31.711367   20.789795
 H  -12.330690   28.120690   25.448273
 H  -10.639945   26.435013   24.809603
 H  -10.243390   28.023099   21.037200
 H  -11.961417   29.757935   21.492920
