68 
4x7n_ligand_aiqm1.xyz
 C   27.747607    7.956674    0.362473
 C   28.418795    7.766881   -0.871462
 C   28.928413    6.512882   -1.288993
 C   29.562222    6.417351   -2.496139
 C   29.700425    7.578220   -3.313235
 C   30.396984    7.471962   -4.640363
 N   29.239334    8.758086   -2.952147
 C   28.604143    8.863834   -1.746792
 C   28.114251   10.134141   -1.356996
 C   27.466936   10.295942   -0.159112
 C   27.269504    9.195709    0.727829
 C   26.554511    9.398690    2.023086
 C   27.303840    9.687977    3.184094
 N   28.673770    9.706657    3.111144
 C   25.164821    9.300471    2.079304
 C   24.363950    8.980615    0.843857
 C   24.513872    9.492131    3.304600
 C   25.239656    9.764409    4.447231
 C   26.634866    9.872591    4.413980
 C   27.386724   10.208892    5.631652
 O   28.508745   10.713027    5.592760
 C   26.778422    9.956741    6.960840
 C   26.087942    8.731958    7.372846
 O   25.760553    7.743017    6.739972
 N   25.848198    8.898450    8.743690
 C   25.706640    7.802991    9.641719
 C   24.699814    6.867829    9.411014
 C   24.561223    5.791938   10.280345
 C   25.405111    5.655212   11.382281
 C   26.403216    6.599391   11.606765
 C   26.561306    7.675702   10.736600
 N   26.481386   10.074202    9.199883
 C   25.693071   10.812504   10.184486
 C   26.967072   10.720157    8.073695
 C   27.572879   12.058795    8.199379
 C   28.444632   12.328658    9.259516
 C   29.025401   13.587003    9.383696
 C   28.731088   14.587658    8.459849
 C   27.859816   14.322950    7.405382
 C   27.282506   13.063544    7.271819
 H   27.623998    7.109634    1.028779
 H   28.812596    5.645452   -0.650089
 H   29.961991    5.471105   -2.839918
 H   31.421103    7.116440   -4.507265
 H   29.886986    6.751402   -5.283605
 H   30.411560    8.445727   -5.126758
 H   28.271225   10.964205   -2.034943
 H   27.099026   11.273703    0.131060
 H   29.076338    9.797690    2.195025
 H   29.148769   10.171644    3.868317
 H   24.539308    9.716923    0.057782
 H   24.648274    8.007958    0.438764
 H   23.298043    8.961982    1.071584
 H   23.435739    9.407802    3.351865
 H   24.725932    9.890610    5.391768
 H   24.072553    6.970731    8.538775
 H   23.790606    5.054457   10.095303
 H   25.290181    4.815953   12.054489
 H   27.068945    6.496060   12.453665
 H   27.336624    8.415139   10.891213
 H   24.711427   11.076462    9.780144
 H   25.561365   10.193121   11.069213
 H   26.234301   11.711784   10.468684
 H   28.675096   11.544918    9.971096
 H   29.709524   13.782884   10.198377
 H   29.184766   15.564690    8.556624
 H   27.636916   15.093973    6.679606
 H   26.620563   12.852710    6.441197
