68 
4x7n_ligand_ani-2x.xyz
 C   27.751004    7.921463    0.429997
 C   28.486713    7.712595   -0.768824
 C   29.127479    6.486433   -1.097413
 C   29.810569    6.380774   -2.273142
 C   29.870255    7.504212   -3.153383
 C   30.623246    7.394291   -4.454811
 N   29.291404    8.648240   -2.879298
 C   28.603239    8.767435   -1.703599
 C   27.983763   10.012986   -1.418233
 C   27.280097   10.185082   -0.254928
 C   27.161136    9.135879    0.688609
 C   26.378316    9.361165    1.929897
 C   27.052029    9.821082    3.087539
 N   28.386980   10.067668    3.021337
 C   24.997558    9.154749    1.938036
 C   24.276197    8.716280    0.688651
 C   24.298752    9.359939    3.124790
 C   24.959654    9.757087    4.277414
 C   26.335073    9.975100    4.303226
 C   27.036340   10.423238    5.549112
 O   28.085685   11.058956    5.457005
 C   26.507711   10.134203    6.902903
 C   25.751192    8.953632    7.348057
 O   25.217342    8.048918    6.730210
 N   25.754298    9.016003    8.745554
 C   25.753523    7.874058    9.592131
 C   24.830043    6.853634    9.375007
 C   24.801912    5.766189   10.240616
 C   25.698772    5.677289   11.301478
 C   26.633664    6.688749   11.499729
 C   26.662143    7.787609   10.650624
 N   26.384695   10.182546    9.177093
 C   25.607913   10.914847   10.183356
 C   26.851768   10.832376    8.055098
 C   27.618656   12.075831    8.238700
 C   28.625424   12.145969    9.206701
 C   29.339608   13.321704    9.398146
 C   29.044813   14.449210    8.635853
 C   28.036732   14.391238    7.678277
 C   27.330631   13.210353    7.478596
 H   27.660831    7.108834    1.148269
 H   29.065142    5.646159   -0.406806
 H   30.312149    5.457834   -2.556342
 H   31.676562    7.149830   -4.276592
 H   30.205469    6.597988   -5.081195
 H   30.565216    8.340093   -4.997377
 H   28.091717   10.804276   -2.150214
 H   26.801208   11.138943   -0.035544
 H   28.821997   10.124850    2.115413
 H   28.780537   10.578803    3.799835
 H   24.406246    9.452021   -0.113480
 H   24.682295    7.767934    0.319028
 H   23.207894    8.589861    0.875527
 H   23.223961    9.198941    3.153139
 H   24.387271    9.883625    5.191347
 H   24.153036    6.918365    8.531844
 H   24.074448    4.975163   10.075263
 H   25.671144    4.819987   11.968732
 H   27.340887    6.628679   12.323038
 H   27.374495    8.592592   10.791164
 H   24.602987   11.155559    9.811920
 H   25.512824   10.297671   11.080954
 H   26.138589   11.832705   10.449142
 H   28.841543   11.267034    9.808411
 H   30.122300   13.360409   10.150930
 H   29.600381   15.370817    8.789576
 H   27.801291   15.266211    7.079333
 H   26.548650   13.166804    6.725874
