34 
4xh6_ligand_ani-2x.xyz
 C   17.205263  -35.417598    2.210092
 C   18.052055  -36.480474    2.537349
 C   18.750456  -37.175602    1.524441
 C   18.538329  -36.806937    0.197488
 C   17.658727  -35.788377   -0.152639
 C   16.990683  -35.106014    0.858698
 C   15.337799  -35.166621    3.583066
 C   19.672879  -38.267673    1.843226
 C   20.322819  -38.855168    0.697058
 C   20.080960  -38.424005   -0.564178
 C   20.705486  -38.955660   -1.793508
 C   21.886558  -39.703594   -1.726563
 C   22.472627  -40.219033   -2.869988
 C   21.876864  -39.995112   -4.111908
 C   20.701410  -39.248881   -4.199785
 O   16.607704  -34.669632    3.187999
 O   18.178295  -36.816936    3.819584
 O   16.102149  -34.113580    0.611412
 O   19.169363  -37.446229   -0.826767
 O   19.874886  -38.644043    3.007390
 O   22.490377  -40.527573   -5.201204
 C   20.126682  -38.731742   -3.049000
 H   17.508231  -35.549741   -1.200301
 H   14.643653  -35.188405    2.734106
 H   15.425274  -36.171988    4.012828
 H   14.959047  -34.480529    4.343768
 H   20.999777  -39.675504    0.889274
 H   22.375319  -39.872074   -0.770256
 H   23.389024  -40.799082   -2.821030
 H   20.237098  -39.069819   -5.169136
 H   18.835266  -37.559813    3.850115
 H   16.040337  -33.974161   -0.341503
 H   21.984200  -40.303208   -5.992128
 H   19.215300  -38.146794   -3.114400
