34 
4xh6_ligand_aiqm1.xyz
 C   17.212041  -35.402703    2.222979
 C   18.066422  -36.460990    2.543006
 C   18.766695  -37.157261    1.523006
 C   18.570901  -36.768798    0.196679
 C   17.711023  -35.739054   -0.148953
 C   17.031824  -35.072344    0.873678
 C   15.316120  -35.255344    3.568673
 C   19.657364  -38.255649    1.837621
 C   20.306770  -38.857078    0.691471
 C   20.079245  -38.409818   -0.565014
 C   20.697793  -38.945465   -1.783860
 C   21.890084  -39.681442   -1.721991
 C   22.462456  -40.203356   -2.871595
 C   21.846720  -39.996624   -4.105056
 C   20.665618  -39.260682   -4.183698
 O   16.575747  -34.692920    3.198813
 O   18.201769  -36.815635    3.817661
 O   16.150800  -34.078677    0.608732
 O   19.209848  -37.397398   -0.829772
 O   19.840526  -38.643966    3.001691
 O   22.448210  -40.535459   -5.199053
 C   20.101715  -38.736111   -3.029266
 H   17.581111  -35.477274   -1.190998
 H   14.636670  -35.273720    2.711556
 H   15.444881  -36.267260    3.958463
 H   14.914349  -34.609963    4.344561
 H   20.977174  -39.685028    0.865940
 H   22.388330  -39.834599   -0.773977
 H   23.383497  -40.767417   -2.830178
 H   20.189187  -39.094837   -5.143058
 H   18.844992  -37.564864    3.827282
 H   16.121500  -33.928912   -0.339179
 H   21.935959  -40.319538   -5.981066
 H   19.187557  -38.161413   -3.091496
