42 
4xip_ligand_xtb.xyz
 N   -1.744167  -10.437722  -26.036106
 C    6.456017  -12.021622  -24.094033
 C    7.593632  -12.906740  -24.240734
 C    7.207871  -14.331434  -24.617197
 C    5.977827  -14.435866  -25.529179
 C    4.774843  -13.780878  -24.823301
 C    6.252777  -13.734179  -26.860688
 C    1.027496  -10.133967  -25.241922
 C    0.762997  -12.247180  -24.137750
 C   -1.283741  -11.149597  -24.976795
 O   -2.032242  -11.732124  -24.221028
 C    0.198770  -11.163646  -24.805694
 C    2.391340  -10.201614  -25.037463
 C    2.125216  -12.322264  -23.933810
 C    2.954690  -11.301193  -24.392228
 N    4.338856  -11.352302  -24.195927
 C    5.108321  -10.264027  -23.832269
 C    5.157992  -12.425494  -24.353209
 C    5.663787  -15.909970  -25.793105
 O    8.751279  -12.581293  -24.072825
 C    6.416004  -10.634046  -23.747759
 C    7.582400   -9.795785  -23.370644
 H   -2.735902  -10.436197  -26.207877
 H   -1.134958  -10.060673  -26.738486
 H    7.008176  -14.858231  -23.678444
 H    8.071942  -14.808118  -25.083455
 H    4.490309  -14.407978  -23.970573
 H    3.917613  -13.730150  -25.499970
 H    7.113153  -14.182632  -27.351542
 H    5.394404  -13.824960  -27.523661
 H    6.461452  -12.678257  -26.707489
 H    0.613830   -9.259592  -25.722641
 H    0.107270  -13.023673  -23.774496
 H    3.030940   -9.405316  -25.386951
 H    2.546658  -13.155494  -23.395093
 H    4.649109   -9.318567  -23.621829
 H    4.777446  -16.004733  -26.417098
 H    6.494520  -16.389231  -26.305261
 H    5.485421  -16.442130  -24.860982
 H    8.008804  -10.149348  -22.432861
 H    8.360485   -9.879274  -24.126908
 H    7.289365   -8.754502  -23.259620
