42 
4xip_ligand_ani-2x.xyz
 N   -1.761899  -10.366477  -26.082406
 C    6.453894  -12.008023  -24.087144
 C    7.614315  -12.887270  -24.260160
 C    7.269846  -14.304072  -24.696713
 C    6.005987  -14.443975  -25.573183
 C    4.811878  -13.801729  -24.835599
 C    6.223197  -13.761113  -26.930204
 C    1.022875  -10.151720  -25.317970
 C    0.688096  -12.148607  -24.016624
 C   -1.321788  -11.073557  -24.990611
 O   -2.094454  -11.616527  -24.220603
 C    0.161126  -11.116576  -24.792655
 C    2.388185  -10.237453  -25.095736
 C    2.053796  -12.252185  -23.805677
 C    2.914912  -11.299090  -24.355697
 N    4.321992  -11.364438  -24.155936
 C    5.099580  -10.289922  -23.750017
 C    5.169631  -12.428348  -24.373353
 C    5.716615  -15.928695  -25.793320
 O    8.764394  -12.544196  -24.050780
 C    6.416157  -10.640350  -23.685399
 C    7.595873   -9.805641  -23.287466
 H   -2.748421  -10.462795  -26.276093
 H   -1.158329  -10.250760  -26.882001
 H    7.126644  -14.888053  -23.776004
 H    8.140920  -14.722280  -25.208414
 H    4.572819  -14.431005  -23.963578
 H    3.922610  -13.794847  -25.479954
 H    7.064070  -14.223628  -27.460220
 H    5.329636  -13.864588  -27.557051
 H    6.440228  -12.693359  -26.821512
 H    0.625544   -9.305696  -25.873980
 H    0.003865  -12.868659  -23.579578
 H    3.063241   -9.495707  -25.514298
 H    2.448184  -13.064302  -23.201905
 H    4.623592   -9.347581  -23.508106
 H    4.812067  -16.063138  -26.397781
 H    6.546446  -16.418214  -26.316703
 H    5.565120  -16.450384  -24.840796
 H    8.126104  -10.275861  -22.452967
 H    8.314526   -9.749440  -24.111601
 H    7.298927   -8.791742  -22.999105
