42 
4xip_ligand_aiqm1.xyz
 N   -1.777143  -10.316558  -25.970803
 C    6.462227  -12.012893  -24.103560
 C    7.598261  -12.921412  -24.250688
 C    7.207489  -14.342785  -24.610538
 C    5.987962  -14.444501  -25.537685
 C    4.782800  -13.780360  -24.847983
 C    6.283347  -13.757702  -26.876202
 C    1.018291  -10.150340  -25.283170
 C    0.738853  -12.230321  -24.100072
 C   -1.302152  -11.153973  -24.997528
 O   -2.042270  -11.834713  -24.313188
 C    0.183436  -11.164087  -24.807856
 C    2.389979  -10.215156  -25.073703
 C    2.108108  -12.303917  -23.886128
 C    2.939378  -11.297573  -24.383058
 N    4.335819  -11.344583  -24.179627
 C    5.112140  -10.255005  -23.804095
 C    5.166178  -12.420127  -24.364772
 C    5.671188  -15.917130  -25.793462
 O    8.763156  -12.595594  -24.100281
 C    6.429022  -10.627009  -23.735467
 C    7.595267   -9.774948  -23.354221
 H   -2.754880  -10.420845  -26.181725
 H   -1.179752  -10.030498  -26.724584
 H    6.980771  -14.871241  -23.674377
 H    8.077160  -14.831580  -25.057448
 H    4.482086  -14.398157  -23.991549
 H    3.925801  -13.736259  -25.528907
 H    7.144518  -14.231379  -27.352450
 H    5.423370  -13.853979  -27.544808
 H    6.505239  -12.696376  -26.755061
 H    0.595900   -9.291436  -25.789773
 H    0.074779  -12.989066  -23.712402
 H    3.045978   -9.435048  -25.436933
 H    2.535619  -13.126668  -23.328687
 H    4.633607   -9.317095  -23.576381
 H    4.787630  -16.013705  -26.428351
 H    6.509455  -16.400353  -26.297577
 H    5.482653  -16.444728  -24.854875
 H    8.119059  -10.197331  -22.496528
 H    8.318704   -9.723039  -24.167668
 H    7.272968   -8.762531  -23.104729
