47 
4xiq_ligand_aiqm1.xyz
 N   -2.373149  -11.803263  -24.156654
 C    6.207889  -11.754092  -24.118502
 C    7.380885  -12.610789  -24.278178
 C    7.049090  -14.053746  -24.610809
 C    5.815579  -14.228934  -25.508920
 C    4.595592  -13.606992  -24.805023
 C    6.049445  -13.554338  -26.865419
 C    0.480009  -12.162297  -24.011246
 C    0.691465  -10.109572  -25.262117
 C    3.483024   -8.204793  -24.891379
 O   -2.049365  -10.332404  -25.846918
 C   -1.583890  -11.031747  -24.968088
 C   -0.108432  -11.119640  -24.724774
 C    1.858668  -12.185901  -23.826322
 C    2.067737  -10.124357  -25.086189
 O    2.840754   -9.189733  -25.713242
 C    4.051209   -8.766056  -23.589305
 C    4.785541  -10.045091  -23.813914
 C    2.658043  -11.175330  -24.358309
 N    4.056366  -11.185703  -24.153849
 C    4.930091  -12.222651  -24.350866
 C    5.562619  -15.719298  -25.730360
 O    8.532008  -12.229177  -24.153731
 C    6.119181  -10.363555  -23.777211
 C    7.260984   -9.449522  -23.451656
 H   -3.360414  -11.628779  -24.235865
 H   -2.036977  -12.092076  -23.256450
 H    6.869462  -14.578418  -23.662001
 H    7.931189  -14.507419  -25.070341
 H    4.336063  -14.223600  -23.933108
 H    3.724433  -13.606142  -25.469165
 H    6.925319  -13.991582  -27.350121
 H    5.183343  -13.707508  -27.514382
 H    6.216398  -12.480931  -26.767367
 H   -0.124753  -12.974422  -23.629183
 H    0.233908   -9.323949  -25.849111
 H    2.770327   -7.405231  -24.665820
 H    4.278793   -7.811479  -25.522205
 H    2.323996  -12.994033  -23.277331
 H    3.231939   -8.922649  -22.877075
 H    4.713106   -8.019583  -23.153058
 H    4.670366  -15.868227  -26.342264
 H    6.410769  -16.172297  -26.245877
 H    5.420683  -16.237662  -24.778116
 H    7.831220   -9.825796  -22.601466
 H    7.953403   -9.384147  -24.291132
 H    6.905787   -8.443787  -23.216180
