45 
4xua_ligand_ani-2x.xyz
 C   72.560342   37.067126    4.158262
 C   72.542517   38.280923    3.281528
 C   73.185309   38.525364    2.090383
 N   71.802799   39.388386    3.580214
 N   71.967307   40.278294    2.650413
 N   72.800334   39.777390    1.741680
 C   73.193529   40.544312    0.567389
 C   72.631880   39.975036   -0.738144
 N   71.192311   40.139364   -0.864762
 C   70.586531   41.308817   -1.209500
 N   69.286838   41.232664   -1.179337
 C   68.999825   39.945087   -0.812918
 C   67.611812   39.466848   -0.763386
 C   66.572102   40.392184   -0.638373
 C   65.253382   39.963769   -0.583241
 C   64.954911   38.606608   -0.665809
 C   65.983865   37.680234   -0.808488
 C   67.305405   38.105442   -0.860884
 C   70.179437   39.248988   -0.574061
 C   70.426586   37.915392    0.001420
 C   69.914361   37.597909    1.263654
 C   70.174293   36.366235    1.841565
 C   70.934294   35.416092    1.154422
 C   71.246410   34.155223    1.785117
 N   71.500821   33.151425    2.305332
 C   71.398098   35.698201   -0.131611
 C   71.145485   36.939782   -0.697104
 H   72.608874   36.150367    3.559428
 H   73.418050   37.068913    4.839723
 H   71.650420   37.036364    4.764037
 H   73.860718   37.942518    1.474471
 H   74.287478   40.549305    0.510009
 H   72.844667   41.566441    0.726155
 H   72.886785   38.917368   -0.819469
 H   73.096827   40.490140   -1.582613
 H   71.167593   42.184322   -1.479497
 H   66.820799   41.449232   -0.591222
 H   64.453110   40.692426   -0.479055
 H   63.921492   38.272571   -0.623339
 H   65.755460   36.620241   -0.879273
 H   68.108625   37.381492   -0.981996
 H   69.335269   38.337664    1.810900
 H   69.807101   36.131847    2.835906
 H   71.964627   34.954177   -0.681248
 H   71.510020   37.160818   -1.698079
