45 
4xua_ligand_xtb.xyz
 C   72.740186   36.844644    3.969867
 C   72.556601   38.046155    3.119116
 C   73.293702   38.495939    2.043380
 N   71.570522   38.946143    3.331038
 N   71.659191   39.892750    2.478675
 N   72.694436   39.656755    1.681284
 C   73.055844   40.555263    0.624355
 C   72.635108   40.022927   -0.758425
 N   71.220637   40.142150   -0.973579
 C   70.604126   41.256364   -1.446897
 N   69.310883   41.157599   -1.424645
 C   69.029935   39.930614   -0.896152
 C   67.654977   39.471908   -0.766958
 C   66.640665   40.417214   -0.622396
 C   65.324316   40.017510   -0.499832
 C   65.000179   38.670700   -0.525085
 C   66.000254   37.726105   -0.687039
 C   67.319057   38.120326   -0.811665
 C   70.214823   39.278280   -0.594025
 C   70.435667   37.985644    0.035957
 C   69.759691   37.683204    1.220964
 C   69.955344   36.474207    1.850308
 C   70.836860   35.539717    1.302153
 C   71.072123   34.310147    1.955874
 N   71.285378   33.315140    2.484985
 C   71.498308   35.822810    0.106692
 C   71.293244   37.034239   -0.519983
 H   72.959632   35.967856    3.363861
 H   73.567948   36.997426    4.662018
 H   71.836512   36.670182    4.546298
 H   74.154864   38.105402    1.543644
 H   74.139196   40.706838    0.637211
 H   72.551653   41.503866    0.825730
 H   72.940859   38.978077   -0.848240
 H   73.145287   40.607835   -1.528831
 H   71.148314   42.106767   -1.808260
 H   66.908659   41.462068   -0.608846
 H   64.545974   40.757684   -0.383937
 H   63.971146   38.357439   -0.426829
 H   65.750577   36.675412   -0.722340
 H   68.089104   37.377586   -0.960572
 H   69.095377   38.417108    1.648857
 H   69.442202   36.249861    2.772666
 H   72.163573   35.088202   -0.323834
 H   71.775766   37.229234   -1.467964
