45 
4xua_ligand_aiqm1.xyz
 C   72.605429   37.125636    4.194719
 C   72.509851   38.286552    3.267569
 C   73.270802   38.633498    2.175647
 N   71.545633   39.242098    3.416865
 N   71.678738   40.142398    2.483201
 N   72.717216   39.785687    1.720685
 C   73.127675   40.604582    0.607054
 C   72.682789   40.043587   -0.739171
 N   71.259135   40.147878   -0.947819
 C   70.639957   41.273068   -1.399487
 N   69.335148   41.174974   -1.393486
 C   69.068550   39.915193   -0.910131
 C   67.688994   39.419873   -0.784148
 C   66.671832   40.312745   -0.430720
 C   65.360957   39.872769   -0.299576
 C   65.045181   38.533622   -0.524502
 C   66.048254   37.642018   -0.894058
 C   67.363102   38.081000   -1.029207
 C   70.247286   39.257192   -0.615069
 C   70.462105   37.934766   -0.018826
 C   69.776685   37.600674    1.155757
 C   69.926814   36.346398    1.731043
 C   70.774778   35.403721    1.136086
 C   70.964753   34.112973    1.737535
 N   71.131278   33.076239    2.231187
 C   71.454877   35.723058   -0.042693
 C   71.297563   36.978718   -0.616015
 H   72.142880   36.232470    3.763972
 H   73.644016   36.881924    4.415540
 H   72.091015   37.357828    5.123205
 H   74.130299   38.185387    1.706430
 H   74.214574   40.681558    0.620220
 H   72.698780   41.590981    0.767648
 H   72.993883   39.005426   -0.827544
 H   73.171024   40.613067   -1.529261
 H   71.202277   42.135701   -1.725279
 H   66.920667   41.353019   -0.271521
 H   64.583406   40.573848   -0.024334
 H   64.024628   38.189368   -0.420266
 H   65.807074   36.603850   -1.082848
 H   68.133536   37.385563   -1.337633
 H   69.130343   38.333452    1.616914
 H   69.397550   36.095438    2.639624
 H   72.094037   34.983925   -0.506067
 H   71.813329   37.199576   -1.542640
