57 
4xx3_ligand_aiqm1.xyz
 C    2.543237    3.995722   -1.466533
 C    2.600887    3.271821   -2.656756
 C    2.888280    1.907420   -2.630474
 C    2.776135    3.345360   -0.253893
 C    3.063238    1.982901   -0.233219
 C    3.123305    1.250554   -1.421489
 C    3.426725   -0.225092   -1.395458
 C   -0.470870   -3.008353    1.721432
 C    0.563495   -2.310803    1.097556
 C    1.526682   -2.984050    0.348045
 C    1.473121   -4.372627    0.231434
 C    0.446410   -5.076400    0.844033
 C   -0.525650   -4.397183    1.580671
 C    2.653336   -2.269467   -0.334896
 N   -3.332878    0.087872    0.353165
 C   -2.453833    1.262120    0.324124
 C   -1.986266    1.435092    1.767896
 C   -1.457212    0.163645    2.387093
 N   -1.967313   -1.028892    1.900232
 C   -2.794854   -1.118790    0.761204
 N   -3.087477   -2.190400    0.136537
 O   -0.628757    0.174476    3.275998
 C   -1.515584   -2.272032    2.531296
 C   -1.246288    1.043452   -0.629186
 C   -3.309043    2.451878   -0.093395
 C   -0.476475    2.333335   -0.894470
 C   -1.649877    0.395463   -1.954123
 O    3.705611   -2.825511   -0.601858
 N    2.423819   -0.958521   -0.632937
 H    2.318492    5.054766   -1.485884
 H    2.419226    3.765785   -3.602885
 H    2.932625    1.346833   -3.557300
 H    2.728241    3.898347    0.676263
 H    3.238189    1.480461    0.711173
 H    3.489237   -0.620837   -2.414912
 H    4.386495   -0.425650   -0.925893
 H    0.634677   -1.238103    1.230085
 H    2.243912   -4.874380   -0.335865
 H    0.394848   -6.154004    0.753757
 H   -1.322432   -4.959570    2.056828
 H   -3.854253   -0.045924   -0.501813
 H   -2.836695    1.754185    2.376019
 H   -1.211848    2.195882    1.860070
 H   -2.671992   -3.013543    0.549842
 H   -1.109889   -1.984037    3.496570
 H   -2.382584   -2.913413    2.702165
 H   -0.556964    0.348402   -0.127696
 H   -4.204887    2.491149    0.527478
 H   -2.765178    3.389676    0.022678
 H   -3.613918    2.362456   -1.137420
 H   -0.194063    2.859189    0.020826
 H    0.443018    2.112805   -1.436677
 H   -1.062807    3.023209   -1.507809
 H   -0.781307    0.348775   -2.611698
 H   -2.413024    0.986329   -2.466706
 H   -2.029154   -0.618064   -1.824610
 H    1.470337   -0.634013   -0.650315
