57 
4xx3_ligand_ani-2x.xyz
 C    3.336173    4.227089   -0.738232
 C    3.110548    3.824560   -2.050551
 C    3.028209    2.469227   -2.358949
 C    3.479251    3.266148    0.259509
 C    3.393010    1.913082   -0.050618
 C    3.166846    1.498722   -1.365293
 C    3.100367    0.028863   -1.712731
 C   -0.367614   -2.800080    1.827365
 C    0.634789   -2.111333    1.143746
 C    1.453655   -2.768255    0.223735
 C    1.328088   -4.145432    0.050034
 C    0.357325   -4.847996    0.749948
 C   -0.493725   -4.176311    1.625454
 C    2.481814   -2.058271   -0.604547
 N   -3.471645   -0.030561    0.513390
 C   -2.559978    1.051359    0.137510
 C   -1.962071    1.503993    1.472127
 C   -1.375426    0.362533    2.272347
 N   -1.946703   -0.896771    2.077296
 C   -2.989492   -1.152775    1.157983
 N   -3.513451   -2.288355    0.894580
 O   -0.461149    0.527129    3.057353
 C   -1.303594   -2.034009    2.745952
 C   -1.448258    0.553367   -0.845689
 C   -3.398055    2.176933   -0.459894
 C   -0.567131    1.691026   -1.366198
 C   -2.010134   -0.273287   -2.006878
 O    3.427725   -2.647389   -1.106836
 N    2.279473   -0.717055   -0.776470
 H    3.402114    5.284252   -0.493387
 H    2.997748    4.565842   -2.838498
 H    2.843921    2.157563   -3.386087
 H    3.656473    3.571861    1.288216
 H    3.496945    1.164957    0.732726
 H    2.735228   -0.097174   -2.743023
 H    4.091452   -0.434026   -1.680780
 H    0.792885   -1.056283    1.372449
 H    2.003414   -4.643229   -0.640122
 H    0.252042   -5.920524    0.609477
 H   -1.260375   -4.733658    2.161553
 H   -4.130390   -0.298372   -0.205670
 H   -2.761441    1.943983    2.077026
 H   -1.184834    2.259026    1.345537
 H   -3.093109   -3.036358    1.435384
 H   -0.752472   -1.599941    3.581819
 H   -2.074613   -2.689748    3.161294
 H   -0.811853   -0.123491   -0.259402
 H   -4.233803    2.402014    0.210104
 H   -2.807769    3.090364   -0.587659
 H   -3.811941    1.899283   -1.436383
 H   -0.155436    2.298226   -0.553444
 H    0.275190    1.293183   -1.942838
 H   -1.126379    2.352850   -2.036505
 H   -1.188900   -0.605970   -2.651241
 H   -2.699470    0.309525   -2.629541
 H   -2.535837   -1.166947   -1.653147
 H    1.372564   -0.333654   -0.544998
