61 
4xx4_ligand_aiqm1.xyz
 C    1.759404   -1.141689   -2.836761
 C    1.058037   -2.149866   -3.497329
 C    1.124669   -3.467896   -3.052885
 C    1.907419   -3.776700   -1.943238
 C   -1.518455   -2.305317   -0.232227
 C    2.607258   -2.767097   -1.284012
 C    2.538437   -1.438296   -1.712607
 C    2.266026    0.525074   -0.153661
 C    3.259975   -0.359400   -0.928180
 C    3.057530    1.827225   -1.948992
 C   -3.099238    1.155842    1.195397
 C   -2.381244   -1.186941    1.905236
 C   -3.465149   -0.307785    1.285116
 C   -2.991310   -2.509358    2.352678
 C   -0.278589    4.558134   -1.266638
 C    0.778415    3.707820   -1.570298
 C    1.028639    2.610405   -0.735697
 C    0.224316    2.398610    0.389847
 C    0.063424   -1.912664    1.674786
 N   -1.960176   -0.463356    3.113611
 N   -2.104128    1.614971    2.053958
 C   -1.392660    0.784325    2.931873
 N   -0.321926    1.086319    3.564944
 O   -3.647764    1.915896    0.425092
 C   -1.721544    3.021099    1.887669
 C   -1.177730   -1.389752    0.943633
 C   -0.837342    3.257233    0.683590
 C   -1.090607    4.338917   -0.157830
 N    2.064816    1.690212   -1.006615
 C    4.011119    0.655358   -1.795530
 O    3.168025    2.716415   -2.767567
 H    1.691265   -0.125939   -3.206266
 H    0.455818   -1.901956   -4.360992
 H    0.573954   -4.244693   -3.565327
 H    1.973887   -4.796666   -1.587347
 H   -2.409136   -1.979108   -0.771874
 H   -0.686425   -2.326306   -0.944075
 H   -1.688799   -3.331143    0.102606
 H    3.211113   -3.017691   -0.417976
 H    2.670186    0.830355    0.814350
 H    1.321629    0.013413   -0.000886
 H    3.930780   -0.842491   -0.220828
 H   -4.361153   -0.368229    1.908663
 H   -3.744653   -0.639562    0.285772
 H   -2.229130   -3.179380    2.753019
 H   -3.731709   -2.321964    3.131542
 H   -3.484904   -3.014278    1.521709
 H   -0.482426    5.403123   -1.913417
 H    1.397658    3.886021   -2.434221
 H    0.423180    1.550196    1.031520
 H    0.849412   -2.143694    0.954350
 H   -0.147945   -2.833458    2.224192
 H    0.461427   -1.179870    2.376935
 H   -1.374354   -1.016054    3.724032
 H   -0.040122    2.046088    3.404743
 H   -1.231301    3.351917    2.803171
 H   -2.640247    3.592650    1.786084
 H   -0.921720   -0.405922    0.532711
 H   -1.927121    4.995516    0.043023
 H    4.304105    0.284448   -2.776076
 H    4.907382    1.027439   -1.292397
