61 
4xx4_ligand_xtb.xyz
 C    2.265461   -1.483639   -2.144537
 C    1.621651   -2.677856   -2.417538
 C    1.883333   -3.802965   -1.655407
 C    2.794786   -3.728008   -0.616408
 C   -3.339231   -0.971000   -0.879815
 C    3.438662   -2.534153   -0.345104
 C    3.184967   -1.399192   -1.105940
 C    2.897616    0.800390    0.039958
 C    3.864351   -0.099553   -0.750279
 C    2.936642    1.625685   -2.149036
 C   -3.088435    1.297679    2.200315
 C   -2.464978   -1.021608    1.537124
 C   -3.539177   -0.145997    2.192826
 C   -2.840742   -2.497230    1.653717
 C   -1.054935    3.200956   -1.479012
 C    0.178260    2.646741   -1.764481
 C    0.998805    2.202603   -0.728493
 C    0.558431    2.341085    0.585849
 C   -0.877932   -1.109933   -0.468639
 N   -1.286674   -0.800004    2.350170
 N   -1.766945    1.488850    2.502970
 C   -0.868434    0.424360    2.749359
 N    0.262396    0.513411    3.316889
 O   -3.836456    2.221138    1.964448
 C   -1.221215    2.828638    2.277360
 C   -2.207363   -0.577211    0.066205
 C   -0.693273    2.870102    0.865353
 C   -1.505983    3.300779   -0.174063
 N    2.228920    1.585239   -0.981411
 C    4.182748    0.774078   -1.961152
 O    2.646545    2.233487   -3.152947
 H    2.045897   -0.617527   -2.750121
 H    0.912436   -2.728456   -3.230502
 H    1.381557   -4.734610   -1.871674
 H    3.006992   -4.601059   -0.016845
 H   -4.300474   -0.616634   -0.518484
 H   -3.163620   -0.522125   -1.854585
 H   -3.384712   -2.049268   -1.008249
 H    4.148915   -2.481853    0.468082
 H    3.448564    1.454642    0.727120
 H    2.176477    0.213831    0.613876
 H    4.755503   -0.316537   -0.157515
 H   -3.686138   -0.473056    3.225557
 H   -4.496254   -0.201092    1.677159
 H   -2.107023   -3.122351    1.151939
 H   -2.876779   -2.782737    2.702656
 H   -3.816835   -2.678820    1.215438
 H   -1.681520    3.541253   -2.289701
 H    0.509856    2.560888   -2.785037
 H    1.182805    2.023376    1.404821
 H   -0.701823   -0.710664   -1.463992
 H   -0.880526   -2.195411   -0.535798
 H   -0.048047   -0.803706    0.163129
 H   -0.602233   -1.531877    2.444323
 H    0.504935    1.426460    3.678157
 H   -0.440752    3.040826    3.010301
 H   -2.043347    3.533544    2.410202
 H   -2.140649    0.516763    0.066501
 H   -2.486404    3.696864    0.041276
 H    4.409393    0.210628   -2.864612
 H    5.022307    1.442335   -1.757604
