36 
4y2t_ligand_ani-2x.xyz
 C  -10.683507   -5.553155   55.647847
 C  -11.918743   -6.195104   55.659716
 C  -10.279188   -4.813856   56.756512
 C  -12.749164   -6.100420   56.772830
 C  -11.109422   -4.720182   57.867650
 C  -17.679101   -6.280199   60.492587
 C  -16.196066   -5.271038   62.069129
 C  -16.680374   -6.276514   59.530614
 C  -15.178765   -5.252224   61.116562
 C  -17.460869   -5.778565   61.778710
 C  -12.348081   -5.360945   57.883365
 C  -15.419985   -5.758720   59.841454
 C  -18.545423   -5.823844   62.831849
 C  -13.217066   -5.251433   59.111580
 C  -18.208454   -6.754225   64.006999
 C  -17.932798   -8.184860   63.572880
 O  -17.651192   -8.940445   64.737574
 O  -14.495733   -5.794130   58.842209
 H  -10.037736   -5.629168   54.776742
 H  -12.239792   -6.774002   54.796114
 H   -9.315476   -4.309625   56.754303
 H  -13.714307   -6.597823   56.784986
 H  -10.792465   -4.142050   58.734191
 H  -18.657767   -6.687210   60.242689
 H  -15.989278   -4.872513   63.062231
 H  -16.857752   -6.669754   58.533266
 H  -14.210071   -4.845239   61.388331
 H  -19.484679   -6.153354   62.366696
 H  -18.732881   -4.813226   63.220326
 H  -13.310827   -4.196928   59.409902
 H  -12.753922   -5.788131   59.953052
 H  -19.035086   -6.758182   64.727181
 H  -17.326619   -6.377525   64.539843
 H  -17.084060   -8.201353   62.868575
 H  -18.813289   -8.589184   63.044262
 H  -17.483364   -9.850075   64.466443
