38 
4y2u_ligand_aiqm1.xyz
 C    4.679408    1.685090   -0.337944
 C    4.528275    0.939936   -1.502972
 C    3.883618    1.388719    0.764823
 C    3.591616   -0.083803   -1.559409
 C    2.942338    0.359014    0.733448
 C    2.791723   -0.385290   -0.451306
 C   -1.381557   -0.302732    0.714483
 C    2.095363    0.044561    1.949048
 C    1.244376   -1.902818    0.671436
 C    0.843168   -0.739254    1.578900
 C   -4.262202    0.447798    0.720739
 C   -3.674566    1.372319   -1.529809
 C   -3.574509   -1.101088   -1.158049
 C   -3.396334    0.269071   -0.518418
 N    1.798529   -1.365465   -0.558077
 N   -0.112283    0.146945    0.919357
 O   -1.875934   -1.250256    1.291310
 O   -1.999383    0.481172   -0.184926
 H    5.401855    2.487189   -0.286176
 H    5.134079    1.153825   -2.373576
 H    3.990844    1.971317    1.673765
 H    3.469211   -0.653556   -2.473795
 H    1.816288    0.969339    2.458931
 H    2.680502   -0.545935    2.663160
 H    1.961832   -2.533437    1.216046
 H    0.368937   -2.508730    0.440306
 H    0.358527   -1.138077    2.467389
 H   -5.315172    0.407877    0.434440
 H   -4.059916    1.418779    1.176906
 H   -4.064949   -0.336937    1.445785
 H   -3.507684    2.350935   -1.077720
 H   -3.020901    1.265592   -2.396711
 H   -4.712363    1.312179   -1.863288
 H   -3.368936   -1.890678   -0.440531
 H   -2.898055   -1.202911   -2.008844
 H   -4.601756   -1.203995   -1.512956
 H    1.986348   -2.051816   -1.268176
 H    0.260064    0.725219    0.182512
