31 
4y5d_ligand_ani-2x.xyz
 C   10.400817   -8.274546   -4.193205
 C   10.721978   -6.933165   -4.414362
 C   11.971398   -4.916713   -3.353342
 C   11.507430   -6.195143   -3.428907
 N   13.936361   -4.134778   -0.248567
 C   13.842585   -5.371438    0.323654
 C   12.677935   -4.825665   -2.122650
 O    9.715942  -10.978933   -3.817215
 C    9.353308  -10.405584   -4.819683
 O    8.628168  -10.999043   -5.780730
 C    8.313349  -12.369787   -5.530111
 C    9.654197   -8.977417   -5.129573
 C    9.216510   -8.353727   -6.300383
 C    9.534943   -7.018295   -6.522712
 C   10.283428   -6.310671   -5.585839
 O   11.886788   -6.906902   -2.311061
 C   12.596025   -6.066397   -1.526064
 C   13.173422   -6.392371   -0.280089
 C   13.390374   -3.735137   -1.482367
 O   13.544987   -2.597518   -1.885295
 H   10.723814   -8.790807   -3.295420
 H   11.852696   -4.103082   -4.057862
 H   14.440517   -3.394168    0.224224
 H   14.336085   -5.475512    1.284088
 H    9.226986  -12.961016   -5.433418
 H    7.732182  -12.467152   -4.610114
 H    7.730990  -12.698650   -6.390188
 H    8.634385   -8.918026   -7.020865
 H    9.198148   -6.526097   -7.430580
 H   10.528944   -5.267792   -5.765324
 H   13.096406   -7.374968    0.170059
