31 
4y5d_ligand_dft.xyz
 C    1.544280   -0.053649   -0.000015
 C    0.553789    0.930060   -0.000020
 C   -2.010831    1.294886   -0.000014
 C   -0.860401    0.567630   -0.000017
 N   -5.155825   -0.763262    0.000019
 C   -4.549857   -1.993490    0.000001
 C   -3.077493    0.346427   -0.000006
 O    3.613742   -1.980069    0.000003
 C    3.893751   -0.802623    0.000007
 O    5.156741   -0.347570    0.000009
 C    6.165867   -1.355202   -0.000027
 C    2.891509    0.302016    0.000014
 C    3.266178    1.646094    0.000035
 C    2.281582    2.628755    0.000018
 C    0.938451    2.277335   -0.000010
 O   -1.147246   -0.779038    0.000010
 C   -2.486565   -0.899033    0.000004
 C   -3.198167   -2.124513    0.000012
 C   -4.516206    0.489837   -0.000005
 O   -5.165350    1.523106   -0.000017
 H    1.281295   -1.105250   -0.000049
 H   -2.109652    2.369859   -0.000033
 H   -6.165350   -0.706177    0.000056
 H   -5.219799   -2.844637   -0.000003
 H    6.079919   -1.984336    0.889287
 H    6.079896   -1.984290   -0.889371
 H    7.114941   -0.819935   -0.000024
 H    4.316153    1.914557    0.000060
 H    2.562682    3.677137    0.000032
 H    0.181528    3.055884   -0.000027
 H   -2.709259   -3.088579    0.000009
