31 
4y5d_ligand_xtb.xyz
 C   10.406673   -8.310955   -4.163594
 C   10.734416   -6.971300   -4.364210
 C   11.961009   -4.960621   -3.334381
 C   11.514249   -6.257104   -3.374325
 N   13.934056   -4.074625   -0.282254
 C   13.865827   -5.292743    0.317715
 C   12.675237   -4.825717   -2.119271
 O    9.691405  -11.027773   -3.847547
 C    9.343196  -10.428273   -4.835122
 O    8.618944  -10.991895   -5.814678
 C    8.278444  -12.355896   -5.622724
 C    9.659216   -9.004309   -5.106997
 C    9.229698   -8.362336   -6.266098
 C    9.553909   -7.031945   -6.467663
 C   10.297530   -6.338385   -5.531388
 O   11.911816   -6.930329   -2.253359
 C   12.608254   -6.073280   -1.499541
 C   13.210605   -6.336171   -0.250750
 C   13.372962   -3.720262   -1.510650
 O   13.507988   -2.591276   -1.936644
 H   10.730016   -8.826031   -3.272113
 H   11.812404   -4.190538   -4.061477
 H   14.434602   -3.326133    0.180734
 H   14.362580   -5.380906    1.271231
 H    9.181396  -12.963651   -5.533492
 H    7.686034  -12.474867   -4.713021
 H    7.702583  -12.651997   -6.495763
 H    8.649791   -8.905801   -6.994608
 H    9.223227   -6.529949   -7.364674
 H   10.543154   -5.302110   -5.700964
 H   13.149878   -7.303321    0.213729
