55 
4y62_ligand_xtb.xyz
 O   -1.210694   -1.716953    1.997501
 C   -1.802762   -1.569463    0.942051
 N   -2.115130   -2.615701    0.136091
 C   -2.721101   -2.578692   -1.124427
 O   -2.870976   -3.597011   -1.754910
 C   -3.128772   -1.242253   -1.500843
 C   -2.871599   -0.200147   -0.695734
 N   -2.221536   -0.331769    0.498330
 C   -2.009468    0.811432    1.389899
 O   -2.550180    1.961465    0.815958
 C   -0.513400    1.101080    1.675576
 O   -0.024004    0.516083    2.836520
 C   -0.505218    2.634567    1.836389
 O   -0.733693    2.997793    3.165747
 C   -1.689845    3.090098    0.974601
 C   -1.289647    3.657966   -0.394853
 N   -0.422603    2.786998   -1.153667
 C    0.897744    2.998363   -1.242235
 O    1.485351    3.926453   -0.723608
 C    1.632954    1.945206   -2.105231
 C    3.153775    2.189179   -2.082309
 O    3.682968    2.240724   -0.791380
 N    1.283698    0.625241   -1.652498
 C    1.966161   -0.236398   -0.870936
 N    0.089625    0.113972   -1.960747
 N   -0.010476   -1.046984   -1.429488
 C    1.118361   -1.326913   -0.739343
 C    1.295337   -2.569822   -0.006536
 C    2.058705   -2.603598    1.156632
 C    2.192680   -3.785843    1.859929
 C    1.571945   -4.939536    1.410138
 C    0.814735   -4.910771    0.250107
 C    0.675013   -3.732173   -0.458638
 H   -1.768568   -3.518739    0.445000
 H   -3.625373   -1.113276   -2.445874
 H   -3.168759    0.809553   -0.932453
 H   -2.511758    0.579988    2.346230
 H    0.079808    0.803699    0.798461
 H   -0.264379   -0.432477    2.812614
 H    0.439179    3.071214    1.485493
 H   -0.337869    2.305862    3.718655
 H   -2.247756    3.859865    1.520287
 H   -0.751414    4.595650   -0.239288
 H   -2.197964    3.844371   -0.972132
 H   -0.809152    1.939717   -1.560155
 H    1.263969    2.043986   -3.133779
 H    3.347344    3.122792   -2.626359
 H    3.661357    1.370087   -2.599629
 H    3.313086    3.025770   -0.358413
 H    2.943258   -0.026093   -0.493697
 H    2.528051   -1.700417    1.517672
 H    2.779553   -3.806133    2.766099
 H    1.676947   -5.860408    1.964390
 H    0.331054   -5.809113   -0.104885
 H    0.091336   -3.698390   -1.366620
