55 
4y62_ligand_aiqm1.xyz
 O   -1.133006   -1.403931    2.082350
 C   -1.757006   -1.375750    1.024510
 N   -2.003277   -2.514945    0.317528
 C   -2.569786   -2.613610   -0.955724
 O   -2.580498   -3.675627   -1.545497
 C   -3.141749   -1.365181   -1.428967
 C   -2.989190   -0.242926   -0.701050
 N   -2.265577   -0.210357    0.477548
 C   -2.196511    1.034111    1.283309
 O   -2.684745    2.091073    0.492611
 C   -0.769703    1.437983    1.714073
 O   -0.402541    0.982896    2.986434
 C   -0.859702    2.961194    1.747039
 O   -1.385441    3.409550    2.979810
 C   -1.883824    3.281243    0.669236
 C   -1.289419    3.699875   -0.669326
 N   -0.346060    2.740540   -1.225272
 C    0.975561    2.941669   -1.181398
 O    1.514611    3.906245   -0.652964
 C    1.826390    1.870386   -1.892154
 C    3.310121    2.136564   -1.691722
 O    3.677784    2.139321   -0.327906
 N    1.444679    0.530070   -1.477317
 C    2.100403   -0.379827   -0.727191
 N    0.255656    0.044619   -1.888901
 N    0.140355   -1.170051   -1.423850
 C    1.262110   -1.474089   -0.700426
 C    1.422284   -2.782034   -0.067397
 C    2.245915   -2.933535    1.049759
 C    2.385257   -4.180037    1.651690
 C    1.710944   -5.285361    1.136749
 C    0.892487   -5.139967    0.018120
 C    0.744845   -3.892783   -0.586728
 H   -1.569794   -3.348582    0.693061
 H   -3.665675   -1.368341   -2.372259
 H   -3.405207    0.708810   -0.997505
 H   -2.826051    0.899452    2.168100
 H   -0.063215    1.099515    0.948119
 H   -0.509850    0.020108    2.956741
 H    0.109156    3.425929    1.545072
 H   -1.032934    2.824394    3.657087
 H   -2.551727    4.071761    1.008156
 H   -0.759682    4.642024   -0.545286
 H   -2.102748    3.845380   -1.383172
 H   -0.674742    1.865190   -1.609273
 H    1.603480    1.937259   -2.959592
 H    3.540540    3.095145   -2.160281
 H    3.883713    1.351104   -2.179809
 H    3.265081    2.919813    0.055936
 H    3.061154   -0.186427   -0.284410
 H    2.759490   -2.072688    1.461592
 H    3.014323   -4.285873    2.525791
 H    1.818912   -6.252743    1.609011
 H    0.359476   -5.991664   -0.382647
 H    0.094835   -3.766796   -1.441710
