59 
4yay_ligand_aiqm1.xyz
 C  -16.963046   14.226830   41.885709
 C  -18.372105   14.585353   40.098957
 C  -19.510715   15.407945   39.546896
 C  -20.870932   14.799684   39.904676
 O  -16.481073    9.975308   37.827363
 N  -17.940690   14.944789   41.319850
 C  -18.323691   13.068861   38.029859
 C  -18.292646   11.548474   37.941561
 C  -16.944144   10.982424   38.324284
 C  -14.964207   11.127201   39.705112
 C  -15.022347    9.997498   40.710737
 C  -16.163627    9.707361   41.463069
 C  -16.167536    8.646823   42.367829
 C  -13.886202    9.203087   40.894458
 C  -13.886657    8.146451   41.797668
 C  -15.036521    7.843472   42.536993
 N  -16.262706   11.664836   39.315716
 C  -15.060801    6.716419   43.502920
 C  -15.446960    6.959364   44.825378
 C  -15.425141    5.947826   45.782010
 C  -15.007851    4.666455   45.428146
 C  -14.638987    4.400089   44.116187
 C  -14.682034    5.407740   43.148787
 C  -14.325014    5.034526   41.771699
 N  -14.929045    5.427606   40.636445
 N  -14.345855    4.823748   39.590678
 C  -16.534605   14.650739   43.263924
 N  -13.417207    4.076994   40.083565
 C  -17.665936   14.484096   44.280349
 N  -13.378047    4.179612   41.433237
 C  -16.384524   13.123766   41.262058
 C  -16.825984   12.757495   39.993148
 C  -17.847058   13.501654   39.392818
 H  -19.416947   15.519674   38.465067
 H  -19.434397   16.401441   39.988518
 H  -21.683766   15.423497   39.531537
 H  -20.984429   13.800819   39.476358
 H  -20.970536   14.714604   40.988211
 H  -17.680028   13.496618   37.255009
 H  -19.329610   13.428338   37.834419
 H  -19.032164   11.116638   38.624287
 H  -18.521114   11.191009   36.940175
 H  -14.486262   10.767971   38.796933
 H  -14.355951   11.945489   40.093497
 H  -17.055007   10.311404   41.346877
 H  -17.061252    8.434176   42.943415
 H  -12.991041    9.404879   40.317732
 H  -12.991930    7.550991   41.927156
 H  -15.749272    7.961182   45.103939
 H  -15.722250    6.164034   46.799654
 H  -14.969857    3.879809   46.168373
 H  -14.312625    3.410291   43.826274
 H  -15.681651    6.081810   40.487653
 H  -15.659632   14.071853   43.568830
 H  -16.237210   15.700741   43.222006
 H  -17.356755   14.840965   45.263267
 H  -18.540332   15.052917   43.963529
 H  -17.958096   13.435400   44.370069
 H  -15.619992   12.557925   41.774129
