59 
4yay_ligand_ani-2x.xyz
 C  -17.119862   14.069060   41.940231
 C  -18.391319   14.546422   40.088854
 C  -19.413791   15.491210   39.492982
 C  -20.814668   15.205905   40.034620
 O  -16.376928   10.011456   37.689069
 N  -18.067003   14.813862   41.356619
 C  -18.309290   13.048455   37.986339
 C  -18.234698   11.534113   37.823855
 C  -16.885906   10.981119   38.222303
 C  -14.967546   11.125635   39.682017
 C  -15.012967    9.963739   40.659114
 C  -16.174989    9.589691   41.336393
 C  -16.157136    8.538701   42.244406
 C  -13.836947    9.254582   40.916809
 C  -13.820018    8.198470   41.816862
 C  -14.988845    7.814383   42.481453
 N  -16.265759   11.642575   39.271268
 C  -14.986941    6.703941   43.472370
 C  -15.361562    6.995654   44.785766
 C  -15.217915    6.058787   45.797815
 C  -14.708793    4.796308   45.505681
 C  -14.393869    4.467819   44.197119
 C  -14.578162    5.391621   43.168587
 C  -14.397149    4.902746   41.790691
 N  -14.985721    5.393579   40.684335
 N  -14.604904    4.670261   39.625161
 C  -16.737032   14.451585   43.349368
 N  -13.818121    3.761952   40.082142
 C  -17.917406   14.423596   44.321059
 N  -13.673970    3.865838   41.418404
 C  -16.497484   13.008006   41.291270
 C  -16.869867   12.696765   39.981328
 C  -17.872351   13.460717   39.375136
 H  -19.402780   15.445853   38.397895
 H  -19.112025   16.505125   39.773067
 H  -21.537513   15.932053   39.649074
 H  -21.155767   14.202709   39.751453
 H  -20.814194   15.264605   41.128396
 H  -17.661540   13.527246   37.238827
 H  -19.331143   13.389026   37.781813
 H  -18.990158   11.048799   38.457302
 H  -18.425499   11.216102   36.796706
 H  -14.449999   10.808638   38.772961
 H  -14.388085   11.955130   40.099723
 H  -17.101793   10.128041   41.161305
 H  -17.071129    8.268063   42.769800
 H  -12.917948    9.535448   40.407102
 H  -12.893869    7.659530   42.012269
 H  -15.741404    7.990557   45.009897
 H  -15.491988    6.313677   46.817941
 H  -14.575058    4.064094   46.297173
 H  -14.014143    3.483065   43.937727
 H  -15.603616    6.188090   40.578920
 H  -15.940580   13.781093   43.695378
 H  -16.309475   15.462330   43.322093
 H  -17.601158   14.744619   45.318766
 H  -18.711006   15.093014   43.973793
 H  -18.338102   13.415844   44.404665
 H  -15.767109   12.397695   41.815529
