23 
4yc0_ligand_aiqm1.xyz
 C    1.749981  -15.963052   -6.051489
 C    3.039008  -18.122819   -4.894743
 C    3.045489  -15.792034   -5.546284
 O    5.143706  -11.890465   -5.744843
 C    5.769110  -12.925665   -5.186862
 O    6.880213  -12.827042   -4.739359
 C    5.058960  -14.278003   -5.110901
 C    3.668350  -14.475861   -5.649702
 N    3.055211  -13.476377   -6.192389
 N    1.806273  -13.672922   -6.671363
 C    1.058344  -14.825333   -6.666296
 O   -0.064987  -14.851816   -7.138190
 C    1.100905  -17.200092   -5.981270
 C    1.744227  -18.278973   -5.403702
 C    3.686978  -16.897142   -4.962158
 H    3.545183  -18.964821   -4.442291
 H    4.258635  -12.180804   -6.041849
 H    5.071238  -14.550312   -4.053105
 H    5.732484  -14.984636   -5.601162
 H    1.377301  -12.858616   -7.082812
 H    0.102494  -17.276240   -6.386139
 H    1.251713  -19.239963   -5.344200
 H    4.686086  -16.803412   -4.561892
