71 
4ycn_ligand_xtb.xyz
 C    4.531973   -1.931795   -3.522331
 C    4.769006   -1.452373   -2.128151
 C    4.892985   -0.181989   -1.784354
 C    5.128563    0.344319   -0.396439
 C    5.026729   -0.693936    0.688007
 C    6.327530   -1.118097    1.297217
 C    3.873252   -1.221209    1.083907
 C    2.523899   -0.884513    0.521543
 C    1.772678   -2.146662    0.073241
 C    0.733675   -1.843615   -0.953456
 C   -0.568805   -2.096215   -0.827673
 C   -1.527358   -1.811752   -1.870045
 C   -2.847833   -1.992881   -1.800126
 C   -3.605969   -2.488153   -0.609093
 C   -3.880592   -1.338645    0.383630
 C   -4.638111   -0.245428   -0.308991
 C   -4.289605    1.023252   -0.487928
 C   -5.205010    1.994400   -1.176479
 C   -2.992823    1.633116    0.009029
 C   -3.266842    2.502281    1.246340
 C   -2.066854    2.733048    2.111738
 C   -0.807320    2.711308    1.709630
 C    0.374765    2.908315    2.619802
 C    1.051732    1.553016    2.876810
 C    1.821300    1.068855    1.670865
 O    1.729523   -0.250471    1.549620
 O    2.449687    1.780333    0.927738
 O    0.037125    3.448353    3.880562
 O   -2.384989    2.456347   -0.974163
 C   -1.778751    1.730901   -2.010135
 C   -4.690802   -1.849628    1.576532
 H    3.597946   -2.491851   -3.574852
 H    4.480660   -1.098476   -4.219016
 H    5.333533   -2.601183   -3.834507
 H    4.832190   -2.227330   -1.375251
 H    4.836593    0.586106   -2.546215
 H    6.123131    0.799785   -0.369273
 H    4.408608    1.145546   -0.202771
 H    6.809878   -0.267300    1.777743
 H    6.185323   -1.901580    2.037170
 H    6.997307   -1.482837    0.518982
 H    3.851476   -1.949633    1.883793
 H    2.619173   -0.186014   -0.314824
 H    2.508161   -2.831221   -0.358137
 H    1.328081   -2.618012    0.950722
 H    1.107689   -1.385531   -1.861436
 H   -0.938800   -2.540488    0.085805
 H   -1.103892   -1.421157   -2.787497
 H   -3.451606   -1.722165   -2.655967
 H   -3.047538   -3.271714   -0.093532
 H   -4.559610   -2.909645   -0.933484
 H   -2.920437   -0.968251    0.749136
 H   -5.600645   -0.566708   -0.692418
 H   -5.956489    1.475680   -1.766209
 H   -5.714519    2.613262   -0.437507
 H   -4.630973    2.656167   -1.821246
 H   -2.284080    0.837913    0.282825
 H   -4.047895    2.023751    1.841533
 H   -3.650717    3.464304    0.896955
 H   -2.287833    2.931027    3.153976
 H   -0.546898    2.521490    0.680280
 H    1.108773    3.559913    2.116677
 H    1.763786    1.685234    3.695377
 H    0.317210    0.806282    3.176163
 H   -0.444885    4.269530    3.736749
 H   -0.985963    1.076469   -1.624615
 H   -1.347364    2.463635   -2.690108
 H   -2.504283    1.109760   -2.548371
 H   -4.863596   -1.043816    2.286451
 H   -4.158606   -2.650550    2.085362
 H   -5.655444   -2.231079    1.247787
