71 
4ycn_ligand_ani-2x.xyz
 C    6.310169   -1.347319   -3.523228
 C    5.920787   -1.224955   -2.080225
 C    5.831170   -0.070319   -1.423102
 C    5.443198    0.106944    0.026463
 C    5.240371   -1.186555    0.787720
 C    6.478740   -1.840003    1.344485
 C    4.036988   -1.752275    0.930100
 C    2.750625   -1.238313    0.362271
 C    1.772179   -2.372846    0.023476
 C    0.636886   -1.911927   -0.833490
 C   -0.670777   -2.056198   -0.593441
 C   -1.681761   -1.570819   -1.531258
 C   -2.999437   -1.496151   -1.295910
 C   -3.781939   -2.137548   -0.193472
 C   -4.398119   -1.118784    0.789131
 C   -5.232554   -0.098083    0.057214
 C   -4.853878    1.126154   -0.333476
 C   -5.825673    2.079782   -0.973717
 C   -3.463673    1.656333   -0.025246
 C   -3.442278    2.321624    1.348908
 C   -2.081789    2.707526    1.858287
 C   -0.912604    2.477231    1.269406
 C    0.428332    2.822880    1.865097
 C    1.206316    1.566788    2.242292
 C    1.720764    0.805363    1.041218
 O    2.153009   -0.413551    1.396258
 O    1.777343    1.248962   -0.084009
 O    0.346037    3.611248    3.037357
 O   -3.045201    2.627688   -0.971513
 C   -2.618729    2.073935   -2.192647
 C   -5.235964   -1.826906    1.856357
 H    5.518015   -1.832991   -4.105800
 H    6.507070   -0.365273   -3.966962
 H    7.212008   -1.960905   -3.638318
 H    5.701110   -2.158937   -1.563699
 H    6.043211    0.851427   -1.970080
 H    6.224828    0.694974    0.525049
 H    4.540539    0.730877    0.080606
 H    7.032949   -1.140653    1.984125
 H    6.235316   -2.728430    1.937880
 H    7.167004   -2.141463    0.543372
 H    3.945306   -2.638974    1.558055
 H    2.907024   -0.611494   -0.520414
 H    2.334120   -3.140691   -0.525388
 H    1.417123   -2.816879    0.959193
 H    0.931326   -1.410223   -1.757538
 H   -1.019523   -2.504197    0.334963
 H   -1.284892   -1.216064   -2.484421
 H   -3.617458   -0.886223   -1.957257
 H   -3.166652   -2.853181    0.365102
 H   -4.604878   -2.710519   -0.641578
 H   -3.570536   -0.598633    1.292215
 H   -6.248911   -0.412349   -0.191275
 H   -6.809907    1.618239   -1.104056
 H   -5.953887    2.979556   -0.358990
 H   -5.469395    2.415811   -1.952027
 H   -2.741490    0.821005   -0.031150
 H   -3.918207    1.652549    2.078283
 H   -4.081704    3.210331    1.310265
 H   -2.078834    3.212005    2.824177
 H   -0.817643    1.986213    0.298994
 H    1.012517    3.334959    1.088971
 H    2.071960    1.874429    2.842241
 H    0.605942    0.904553    2.875309
 H    0.016140    4.479112    2.772802
 H   -1.771577    1.381879   -2.051809
 H   -2.293873    2.904999   -2.824413
 H   -3.423406    1.528869   -2.709431
 H   -5.645845   -1.104755    2.570291
 H   -4.639374   -2.558303    2.412540
 H   -6.073852   -2.360755    1.391972
