41 
4ycv_ligand_aiqm1.xyz
 O    1.693628   -2.426900   -1.396156
 C    1.730817   -1.454097   -0.654986
 C    2.897128   -0.567141   -0.562289
 C    2.973105    0.425006    0.434343
 C    4.069408    1.264602    0.509406
 C    5.110560    1.106181   -0.416564
 O    6.162824    1.959973   -0.302385
 C    5.071152    0.126692   -1.395383
 C    3.965022   -0.722424   -1.466889
 O    3.959307   -1.670598   -2.412303
 O    0.677358   -1.194855    0.123290
 C    0.541982    0.129759    0.697430
 C    1.828612    0.511384    1.405305
 C   -0.669992    0.071033    1.602031
 C   -1.957539   -0.240072    0.856418
 O   -2.078803    0.762986   -0.148133
 C   -3.221551    0.628319   -0.993939
 C   -3.093729   -0.571010   -1.922770
 C   -4.502303    0.624730   -0.160066
 C   -4.447150   -0.430091    0.941548
 C   -3.181142   -0.219835    1.764196
 H    4.148709    2.039423    1.260044
 H    6.810734    1.759567   -0.980695
 H    5.878856   -0.010224   -2.104984
 H    3.137525   -2.191272   -2.273939
 H    0.355596    0.827455   -0.126620
 H    1.998465   -0.178510    2.239230
 H    1.744493    1.517210    1.817214
 H   -0.772535    1.047113    2.087449
 H   -0.513862   -0.683053    2.381118
 H   -1.874691   -1.227457    0.387131
 H   -3.201736    1.532931   -1.604934
 H   -3.206225   -1.520600   -1.400017
 H   -2.116599   -0.559195   -2.405440
 H   -3.863163   -0.521014   -2.694897
 H   -4.610108    1.612740    0.296332
 H   -5.362434    0.474837   -0.817231
 H   -4.439498   -1.433346    0.505771
 H   -5.334135   -0.371658    1.575193
 H   -3.080824   -0.983994    2.538960
 H   -3.227060    0.755702    2.260412
