41 
4ycw_ligand_dft.xyz
 O    1.046050    2.353583   -1.106646
 C    1.039173    1.164533   -0.813502
 C    2.218641    0.451825   -0.315672
 C    2.218203   -0.950266   -0.185608
 C    3.333916   -1.616301    0.276539
 C    4.480141   -0.879730    0.612523
 O    5.541187   -1.583872    1.067212
 C    4.514725    0.501863    0.475620
 C    3.390029    1.178500   -0.001714
 O    3.470805    2.501914   -0.142381
 O   -0.099610    0.479180   -0.976990
 C   -0.249237   -0.799014   -0.320125
 C    0.962863   -1.672159   -0.598051
 C   -1.557205   -1.387514   -0.819484
 C   -2.762978   -0.524580   -0.472803
 O   -2.785606   -0.424934    0.943272
 C   -3.804931    0.420806    1.468259
 C   -3.539055    1.896271    1.165264
 C   -5.185937   -0.065885    1.008976
 C   -5.250074   -0.237253   -0.512182
 C   -4.079404   -1.100927   -0.989915
 H    3.347785   -2.695116    0.388225
 H    6.265507   -0.977942    1.267208
 H    5.402815    1.077991    0.718566
 H    2.620655    2.800425   -0.545189
 H   -0.331652   -0.603749    0.754645
 H    1.004645   -1.904724   -1.671111
 H    0.863791   -2.620825   -0.061293
 H   -1.685763   -2.376763   -0.363057
 H   -1.503354   -1.522022   -1.906525
 H   -2.611310    0.470712   -0.915814
 H   -3.723248    0.279460    2.551010
 H   -3.718504    2.153727    0.117062
 H   -2.498409    2.139856    1.398324
 H   -4.191571    2.526630    1.778405
 H   -5.381698   -1.035298    1.483774
 H   -5.957832    0.630245    1.357144
 H   -5.205169    0.741624   -1.006951
 H   -6.205037   -0.689650   -0.800153
 H   -4.056336   -1.159071   -2.084595
 H   -4.191157   -2.123505   -0.604158
