49 
4yh3_ligand_ani-2x.xyz
 O  -15.935361    4.873390   -0.386283
 C  -15.171755    5.780905   -0.645236
 N  -15.310726    6.560285   -1.769031
 C  -14.496067    7.649055   -2.111378
 C  -14.874997    8.571452   -3.079067
 C  -14.051158    9.654379   -3.362160
 C  -12.846356    9.811935   -2.678416
 C  -12.450217    8.877433   -1.730657
 C  -13.262241    7.773329   -1.456001
 N  -12.929186    6.757824   -0.525611
 C  -14.021475    6.188825    0.250840
 C  -11.636052    6.438703   -0.122906
 O  -11.416764    6.057766    1.013803
 C  -10.580720    6.537844   -1.190291
 C   -9.292454    7.152919   -0.817678
 C   -8.758944    8.196357   -1.592712
 C   -7.543742    8.778850   -1.257584
 C   -6.845947    8.337044   -0.136507
 C   -7.378482    7.319984    0.652755
 C   -8.597471    6.741209    0.326226
 C  -10.890397    6.061845   -2.418594
 C   -9.973528    5.682559   -3.491845
 C  -10.504915    5.605204   -4.793607
 C   -9.730749    5.250644   -5.878146
 C   -8.379678    4.938296   -5.690053
 O   -7.688787    4.599216   -6.808853
 C   -6.324269    4.273432   -6.657863
 C   -7.833539    4.985696   -4.408192
 C   -8.623484    5.350214   -3.321337
 H  -16.126935    6.353227   -2.330816
 H  -15.820408    8.444364   -3.602173
 H  -14.353782   10.379819   -4.112165
 H  -12.204924   10.662124   -2.893244
 H  -11.497984    8.993911   -1.216524
 H  -13.652933    5.312643    0.783531
 H  -14.373707    6.906725    1.004775
 H   -9.315116    8.548984   -2.460842
 H   -7.140306    9.580014   -1.871285
 H   -5.892802    8.788607    0.126214
 H   -6.844290    6.980978    1.537059
 H   -9.040899    5.973680    0.954233
 H  -11.943570    5.913944   -2.635179
 H  -11.555944    5.849500   -4.933572
 H  -10.141974    5.201763   -6.882264
 H   -5.752009    5.118557   -6.252934
 H   -6.189412    3.402533   -6.002855
 H   -5.958841    4.034629   -7.657499
 H   -6.790589    4.741372   -4.239391
 H   -8.167315    5.364533   -2.333586
