49 
4yh3_ligand_xtb.xyz
 O  -16.010766    5.302210    0.128958
 C  -15.196013    6.080520   -0.304715
 N  -15.267019    6.573403   -1.572158
 C  -14.388781    7.516981   -2.097938
 C  -14.703689    8.243651   -3.237545
 C  -13.805849    9.171394   -3.734690
 C  -12.604336    9.394893   -3.082459
 C  -12.282484    8.676423   -1.944597
 C  -13.155971    7.711675   -1.462307
 N  -12.885304    6.924977   -0.334533
 C  -14.029189    6.632897    0.503495
 C  -11.684494    6.329142   -0.049020
 O  -11.506279    5.747956    1.001935
 C  -10.654731    6.379217   -1.132240
 C   -9.357402    6.982003   -0.787400
 C   -8.759137    7.886480   -1.665345
 C   -7.557363    8.484317   -1.339997
 C   -6.936281    8.192825   -0.135726
 C   -7.529653    7.304762    0.744906
 C   -8.735232    6.705301    0.426895
 C  -10.962625    5.834703   -2.318561
 C  -10.067427    5.637847   -3.451271
 C  -10.565615    5.792690   -4.747278
 C   -9.751029    5.622587   -5.842874
 C   -8.410805    5.264280   -5.679974
 O   -7.692702    5.116995   -6.825974
 C   -6.338759    4.746434   -6.730334
 C   -7.913387    5.077830   -4.393692
 C   -8.734858    5.266510   -3.298404
 H  -16.076658    6.313848   -2.121181
 H  -15.649076    8.073445   -3.731219
 H  -14.051029    9.727817   -4.625837
 H  -11.915504   10.135827   -3.456813
 H  -11.354872    8.858989   -1.426436
 H  -13.724244    5.902309    1.256716
 H  -14.373007    7.540891    1.017885
 H   -9.243193    8.116389   -2.603657
 H   -7.103869    9.183533   -2.027571
 H   -5.995495    8.660272    0.115382
 H   -7.052416    7.077268    1.686819
 H   -9.200248    6.015348    1.113666
 H  -11.977621    5.488653   -2.480909
 H  -11.600454    6.071971   -4.886606
 H  -10.127382    5.754454   -6.845052
 H   -5.755922    5.491005   -6.178559
 H   -6.222371    3.767656   -6.253999
 H   -5.975153    4.692561   -7.755283
 H   -6.888985    4.781941   -4.231382
 H   -8.338523    5.103422   -2.308019
