72 
4yhf_ligand_ani-2x.xyz
 C   -7.276611   -0.269991   -0.666618
 C   -7.509938   -1.459801   -1.616216
 C   -8.474763   -0.983446   -2.712036
 C   -6.506135    0.354086    1.613027
 C    4.068078    0.604040    0.609818
 C    5.288281   -0.061760    0.631134
 C    7.629756   -1.626392    0.075293
 C    7.772233   -1.253053   -1.259126
 N    1.196076    3.922695   -1.450482
 N    3.189105    2.744614   -1.485998
 C    1.888939    2.846738   -1.079481
 C    1.287245    1.865129   -0.257676
 C   -0.068667    2.077044    0.022434
 N   -0.489773    0.994780    0.726408
 C   -1.853547    0.678593    1.128157
 C   -2.413151   -0.440805    0.239809
 N   -3.772819   -0.787616    0.646612
 C   -4.797318   -0.161480   -0.021942
 C   -6.229333   -0.494509    0.437495
 C   -8.159218   -2.636990   -0.877079
 C   -6.203730   -1.920492   -2.273556
 N   -6.710435    1.029628    2.530554
 O   -4.583159    0.608922   -0.944685
 C   -3.847617   -1.250298    2.030813
 C   -3.320346   -0.186607    2.996718
 C   -1.909714    0.254686    2.602238
 N    0.501281    0.094978    0.906943
 C    1.592523    0.610859    0.365821
 C    2.875746   -0.095972    0.432778
 C    5.303404   -1.447590    0.483610
 O    6.458220   -2.191044    0.541674
 C    8.685318   -1.499727    0.971406
 C    9.895701   -0.975083    0.530851
 C   10.052381   -0.592742   -0.798985
 C    8.991685   -0.737110   -1.689382
 C    4.114640   -2.162800    0.350028
 C    2.905205   -1.488811    0.330600
 N   -0.794885    3.145189   -0.348419
 C   -0.088573    4.004016   -1.061831
 H   -6.956692    0.600184   -1.249184
 H   -8.233616   -0.014513   -0.196068
 H   -8.039651   -0.156059   -3.286185
 H   -9.419668   -0.632604   -2.279445
 H   -8.705648   -1.793377   -3.413802
 H    4.042728    1.682305    0.731892
 H    6.215104    0.486134    0.756161
 H    6.937420   -1.366307   -1.946671
 H    3.548586    1.805094   -1.589257
 H    3.446116    3.390507   -2.220942
 H   -2.444219    1.584041    0.971183
 H   -1.760893   -1.320174    0.325920
 H   -2.448740   -0.116108   -0.800663
 H   -6.252935   -1.536885    0.776658
 H   -8.370308   -3.455688   -1.575941
 H   -7.517475   -3.043738   -0.087663
 H   -9.110020   -2.338981   -0.417650
 H   -5.522126   -2.393124   -1.557908
 H   -6.413782   -2.660804   -3.054747
 H   -5.675882   -1.076608   -2.731497
 H   -3.224923   -2.153046    2.102876
 H   -4.866564   -1.544945    2.284317
 H   -4.000529    0.673780    2.992821
 H   -3.319738   -0.585902    4.017921
 H   -1.580243    1.087918    3.231786
 H   -1.191493   -0.563816    2.747892
 H    8.539415   -1.811669    2.001638
 H   10.720752   -0.868145    1.230909
 H   10.999690   -0.185466   -1.142259
 H    9.111309   -0.441409   -2.728562
 H    4.162439   -3.245186    0.271697
 H    1.969206   -2.032711    0.233903
 H   -0.615423    4.898268   -1.389615
