60 
4yhm_ligand_aiqm1.xyz
 N   -4.357787   20.556466    9.908115
 C   -3.589533   22.208980   11.675374
 C   -1.132598   21.979955   10.237374
 C   -3.665326   19.985789    8.868231
 C   -5.742740   20.308905   10.251503
 C   -1.238381   22.784661   11.367983
 C   -0.235892   22.870494   14.106974
 C   -4.970026   17.331708    5.676518
 C   -0.349531   21.486363   13.927207
 C   -2.978169   16.723272    3.838373
 C   -0.838524   20.726538   14.981220
 C    0.407270   26.838875   14.953165
 C   -3.462754   21.377584   10.560012
 C   -2.255595   21.254284    9.845479
 N   -2.416467   20.371859    8.788992
 C   -2.460719   22.903685   12.067664
 C   -4.320232   19.038170    7.917695
 C   -0.056285   23.608562   11.750702
 N   -3.319890   18.425542    7.086076
 N    0.270619   23.706063   13.098438
 O    0.586821   24.213100   10.913036
 C   -3.655602   17.757314    5.925551
 C    1.117122   24.841021   13.479842
 C   -2.664687   17.443867    4.978857
 N   -0.538706   23.477982   15.255397
 C    0.326951   26.165980   13.592819
 C   -5.271916   16.620861    4.520300
 C   -0.994274   22.725580   16.267357
 C   -4.287420   16.300234    3.585469
 C   -1.170333   21.353923   16.179165
 O    0.057461   26.073130   16.000332
 O    0.736319   27.986079   15.107630
 C   -4.626935   15.544906    2.353171
 N   -5.731794   15.605022    1.707999
 N   -3.604556   14.754623    1.853307
 H   -4.523485   22.314991   12.210813
 H   -0.205614   21.933347    9.683407
 H   -6.375297   20.430150    9.372751
 H   -5.872441   19.299786   10.646401
 H   -6.058166   21.027273   11.003345
 H   -5.754983   17.553424    6.388052
 H   -0.073579   21.034340   12.985466
 H   -2.203268   16.503154    3.115254
 H   -0.945286   19.656858   14.872729
 H   -2.518637   23.563221   12.924041
 H   -5.075540   19.592505    7.335063
 H   -4.880071   18.279223    8.480208
 H   -2.438013   18.914021    7.104222
 H    1.877221   24.932056   12.708191
 H    1.619235   24.592070   14.414213
 H   -1.645443   17.769157    5.148560
 H    0.686582   26.874002   12.850244
 H   -0.731391   25.977072   13.383601
 H   -6.292431   16.293983    4.353888
 H   -1.221947   23.254085   17.184010
 H   -1.543850   20.801742   17.028060
 H   -0.187975   25.166399   15.698817
 H   -6.350418   16.299773    2.115742
 H   -3.910829   14.155488    1.103799
 H   -3.015361   14.304803    2.533892
