60 
4yho_ligand_xtb.xyz
 N    4.556982  -21.361745   11.692504
 C    3.757032  -23.319364   13.084652
 C    1.205777  -22.289696   12.351448
 C    3.835422  -20.418441   11.013427
 C    5.987027  -21.456051   11.758155
 C    1.331481  -23.402914   13.167848
 C   -0.713738  -22.080250   14.582554
 C    2.557462  -16.935640    8.123075
 C   -1.705528  -21.099275   14.501383
 C    5.093470  -16.254424    7.276249
 C   -1.425879  -19.840152   14.999776
 C   -3.799819  -24.696946   16.149776
 C    3.637321  -22.191906   12.287310
 C    2.371178  -21.679888   11.913289
 N    2.546672  -20.575524   11.118656
 C    2.590023  -23.917611   13.507073
 C    4.480182  -19.331585   10.226134
 C    0.132822  -24.148362   13.628127
 N    3.469140  -18.423367    9.758684
 N   -0.915992  -23.373408   14.094157
 O    0.030933  -25.351696   13.536869
 C    3.664439  -17.542922    8.728747
 C   -2.179794  -24.035907   14.356009
 C    4.940416  -17.179085    8.288360
 N    0.466383  -21.844622   15.144861
 C   -2.355085  -24.337788   15.855365
 C    2.719706  -16.001163    7.126296
 C    0.724584  -20.638494   15.609746
 C    3.993007  -15.646051    6.680245
 C   -0.184041  -19.593253   15.565830
 O   -4.645037  -23.646034   16.142247
 O   -4.198888  -25.802644   16.352473
 C    4.178973  -14.666072    5.585973
 N    3.227839  -13.682252    5.506901
 N    5.091377  -14.689615    4.698014
 H    4.718600  -23.722764   13.364378
 H    0.243397  -21.906713   12.050584
 H    6.412446  -21.534994   10.755202
 H    6.410330  -20.576623   12.249994
 H    6.259835  -22.342233   12.326609
 H    1.566163  -17.215293    8.450441
 H   -2.655598  -21.299867   14.031284
 H    6.089522  -15.982517    6.954198
 H   -2.168532  -19.057874   14.939446
 H    2.627324  -24.803167   14.121759
 H    5.040605  -19.780993    9.387495
 H    5.208537  -18.801792   10.860283
 H    2.529271  -18.762771    9.909559
 H   -2.168233  -24.974547   13.797897
 H   -3.001338  -23.417855   13.982282
 H    5.817325  -17.615013    8.741997
 H   -1.713257  -25.173516   16.132066
 H   -2.066428  -23.459624   16.441612
 H    1.850314  -15.560189    6.660848
 H    1.706426  -20.515971   16.046876
 H    0.067544  -18.622339   15.960229
 H   -4.190004  -22.804407   16.007523
 H    3.435912  -12.957436    4.838711
 H    2.782254  -13.388212    6.359388
 H    5.707340  -15.493946    4.757226
