60 
4yho_ligand_ani-2x.xyz
 N    4.587413  -21.509903   11.412589
 C    3.810146  -23.447665   12.866146
 C    1.284388  -22.193887   12.476183
 C    3.866056  -20.492720   10.842957
 C    6.015430  -21.717137   11.292706
 C    1.404274  -23.340426   13.254587
 C   -0.911382  -21.961545   14.649438
 C    2.625902  -16.801294    8.154733
 C   -1.914353  -21.085045   14.214131
 C    5.156589  -16.288635    7.145424
 C   -1.917970  -19.790183   14.710388
 C   -3.491848  -24.874707   16.501762
 C    3.674851  -22.284121   12.104819
 C    2.431554  -21.659575   11.897041
 N    2.585774  -20.536858   11.099149
 C    2.657242  -23.967671   13.422913
 C    4.520170  -19.444771    9.997711
 C    0.236049  -24.029413   13.895028
 N    3.513507  -18.521575    9.575305
 N   -0.918624  -23.303047   14.178081
 O    0.278350  -25.225534   14.137532
 C    3.715255  -17.556354    8.622616
 C   -2.104431  -24.089943   14.535626
 C    4.989944  -17.277625    8.103864
 N    0.025073  -21.625038   15.533989
 C   -2.097540  -24.521887   16.017586
 C    2.811957  -15.807100    7.211259
 C   -0.005265  -20.374550   16.005719
 C    4.078380  -15.533615    6.686311
 C   -0.942657  -19.422130   15.633812
 O   -4.344198  -23.821997   16.602133
 O   -3.871861  -25.982665   16.761136
 C    4.271592  -14.476633    5.648459
 N    3.446465  -13.369550    5.782619
 N    5.076910  -14.544694    4.659743
 H    4.772700  -23.932013   13.010683
 H    0.327253  -21.711022   12.316797
 H    6.305005  -21.896728   10.251597
 H    6.572490  -20.855161   11.675296
 H    6.292834  -22.591779   11.882040
 H    1.630138  -16.993428    8.548383
 H   -2.657856  -21.419391   13.495356
 H    6.157169  -16.086538    6.764772
 H   -2.679772  -19.084308   14.389231
 H    2.694626  -24.885007   14.002519
 H    5.026005  -19.920399    9.137729
 H    5.314884  -18.935797   10.569472
 H    2.568279  -18.764164    9.834320
 H   -2.128449  -24.964352   13.881091
 H   -2.992111  -23.483889   14.320495
 H    5.856328  -17.838788    8.442653
 H   -1.449163  -25.390143   16.144911
 H   -1.693260  -23.700413   16.625715
 H    1.959214  -15.233788    6.856305
 H    0.774914  -20.126388   16.722466
 H   -0.908508  -18.422425   16.054323
 H   -3.874998  -22.996400   16.415746
 H    3.720000  -12.612235    5.169565
 H    3.261611  -13.071611    6.730614
 H    5.583130  -15.429143    4.664523
