60 
4yho_ligand_aiqm1.xyz
 N    4.514415  -21.450364   11.485433
 C    3.754336  -23.376633   12.959371
 C    1.193491  -22.222116   12.440786
 C    3.782429  -20.466861   10.867531
 C    5.953988  -21.594800   11.451025
 C    1.330729  -23.351235   13.242510
 C   -0.866688  -21.965959   14.609652
 C    2.630766  -16.726665    8.171565
 C   -1.857470  -21.035383   14.280921
 C    5.178774  -16.336374    7.151945
 C   -1.727796  -19.739777   14.767767
 C   -3.549408  -25.048281   16.309193
 C    3.605792  -22.236657   12.163496
 C    2.347090  -21.664694   11.895985
 N    2.492540  -20.554715   11.076246
 C    2.598575  -23.923553   13.483094
 C    4.432155  -19.425734   10.016862
 C    0.162929  -24.055267   13.836746
 N    3.470197  -18.408301    9.687301
 N   -0.965755  -23.297930   14.145408
 O    0.157258  -25.262975   13.995929
 C    3.691927  -17.501330    8.672731
 C   -2.173518  -24.039609   14.490604
 C    4.975498  -17.288407    8.144436
 N    0.190123  -21.674651   15.370428
 C   -2.209135  -24.439425   15.977855
 C    2.851395  -15.772226    7.192625
 C    0.299470  -20.418186   15.817027
 C    4.128184  -15.560302    6.661648
 C   -0.625511  -19.416850   15.551973
 O   -4.429035  -24.249867   16.973883
 O   -3.886027  -26.150307   15.981452
 C    4.360575  -14.551193    5.598110
 N    3.505215  -13.460994    5.631305
 N    5.221704  -14.630162    4.653228
 H    4.721089  -23.821142   13.156494
 H    0.227390  -21.787461   12.224608
 H    6.310880  -21.572443   10.421311
 H    6.440012  -20.795282   12.013182
 H    6.226273  -22.551209   11.888661
 H    1.631246  -16.879833    8.560553
 H   -2.695070  -21.316305   13.656770
 H    6.180612  -16.183021    6.766035
 H   -2.472675  -18.995530   14.524554
 H    2.643550  -24.816069   14.091422
 H    4.853342  -19.915258    9.122331
 H    5.290783  -18.995936   10.549650
 H    2.519161  -18.691954    9.864694
 H   -2.207588  -24.931677   13.873892
 H   -3.044758  -23.422876   14.248708
 H    5.814155  -17.865042    8.512398
 H   -1.440967  -25.192379   16.142390
 H   -1.985796  -23.572972   16.606653
 H    2.018672  -15.195075    6.811012
 H    1.174852  -20.211405   16.419752
 H   -0.478707  -18.420118   15.940324
 H   -4.017969  -23.404669   17.176080
 H    3.780380  -12.736094    4.988320
 H    3.242389  -13.130215    6.544722
 H    5.705131  -15.523051    4.679512
