61 
4yl1_ligand_xtb.xyz
 O   11.610182   15.600054   33.613957
 C   17.605640   16.591383   23.281341
 O   16.940909   17.394760   33.734668
 C   18.108731   17.766991   22.737772
 C   15.848014   16.842179   27.260336
 N   16.140081   17.320652   30.909477
 C   18.246524   18.858476   23.592696
 C   17.902018   18.781032   24.926334
 C   17.395452   17.601343   25.465049
 C   17.027950   17.514267   26.886119
 O   18.235283   19.122727   33.237389
 C   17.493945   18.257707   32.852658
 C   17.198162   18.051922   31.428534
 C   18.015555   18.465614   30.403315
 C   15.006124   16.852999   31.604733
 C   14.246647   17.723206   32.388890
 C   13.132143   17.259954   33.047915
 C   12.732613   15.922535   32.936274
 C   11.123405   14.262064   33.633202
 C   11.935918   13.401517   34.600293
 C    9.664400   14.351044   34.068129
 C   13.489926   15.060110   32.146094
 C   14.615419   15.524838   31.489104
 C   16.276395   17.286464   29.545683
 C   15.455981   16.724594   28.572813
 C   17.454731   17.989148   29.194359
 C   17.826818   18.094126   27.853841
 C   17.252950   16.509620   24.616210
 C   18.505704   17.903700   21.276617
 C   19.993196   18.274737   21.195072
 C   18.292357   16.611972   20.482811
 C   17.657978   19.008052   20.629349
 H   17.481590   15.712638   22.669289
 H   16.357280   16.748038   33.312413
 H   15.222847   16.426813   26.483945
 H   18.629218   19.795205   23.215546
 H   18.006841   19.652481   25.556437
 H   18.919732   19.026623   30.525918
 H   14.540920   18.758580   32.474812
 H   12.535709   17.919659   33.656809
 H   11.168984   13.838448   32.619496
 H   11.857690   13.810020   35.604832
 H   11.554222   12.384361   34.601520
 H   12.986413   13.382338   34.319740
 H    9.222112   13.359567   34.094798
 H    9.603160   14.797046   35.056979
 H    9.104966   14.972045   33.373683
 H   13.218551   14.023174   32.029757
 H   15.202118   14.848274   30.885476
 H   14.537336   16.222596   28.837579
 H   18.736261   18.609246   27.584898
 H   16.881401   15.573594   25.008600
 H   20.598711   17.506893   21.672355
 H   20.301553   18.361114   20.155213
 H   20.193420   19.221542   21.688754
 H   18.592200   16.768696   19.448487
 H   18.893282   15.800406   20.886710
 H   17.245256   16.317875   20.487351
 H   17.818967   19.966976   21.113912
 H   17.915994   19.110568   19.577314
 H   16.600518   18.762301   20.703347
