61 
4yl1_ligand_aiqm1.xyz
 O   11.405703   15.476738   33.347890
 C   17.441576   16.750551   23.142326
 O   16.545312   17.483149   33.746876
 C   18.143720   17.865976   22.672163
 C   15.745497   16.976470   27.175327
 N   16.066907   17.210118   30.850550
 C   18.464909   18.858918   23.608120
 C   18.105662   18.745231   24.946245
 C   17.400912   17.631080   25.410161
 C   17.017361   17.509333   26.835047
 O   18.538423   18.330105   33.278711
 C   17.499489   17.873250   32.879869
 C   17.226459   17.719950   31.432210
 C   18.112414   18.071156   30.444086
 C   14.890298   16.743140   31.492869
 C   13.817618   17.612897   31.713170
 C   12.672941   17.150730   32.343197
 C   12.575545   15.815724   32.759124
 C   11.260200   14.163506   33.911958
 C   12.028540   14.048840   35.217235
 C    9.771837   13.974047   34.108497
 C   13.646596   14.944237   32.534117
 C   14.796582   15.415793   31.894415
 C   16.223092   17.243968   29.484863
 C   15.328421   16.837557   28.484889
 C   17.494106   17.777184   29.188688
 C   17.886424   17.911329   27.840772
 C   17.076599   16.638310   24.484038
 C   18.561226   18.032982   21.211131
 C   20.092010   18.150108   21.120729
 C   18.125335   16.848651   20.341875
 C   17.922008   19.306864   20.633234
 H   17.171237   15.950109   22.467704
 H   15.767284   17.134526   33.287694
 H   15.078725   16.686197   26.372266
 H   19.006242   19.742844   23.289621
 H   18.362676   19.538213   25.639307
 H   19.083638   18.488634   30.644017
 H   13.895204   18.647320   31.404923
 H   11.836250   17.807935   32.529647
 H   11.628251   13.425255   33.192456
 H   11.629000   14.757695   35.943382
 H   11.925854   13.041728   35.622205
 H   13.088612   14.259036   35.082345
 H    9.579446   12.990268   34.535856
 H    9.389366   14.732671   34.791957
 H    9.242068   14.053927   33.159965
 H   13.611361   13.913660   32.851561
 H   15.635658   14.751717   31.728079
 H   14.354988   16.434243   28.732866
 H   18.862477   18.306232   27.585492
 H   16.545597   15.753093   24.816024
 H   20.569482   17.237652   21.483859
 H   20.394548   18.306093   20.081090
 H   20.471306   18.987905   21.709195
 H   18.448391   17.021499   19.313214
 H   18.575228   15.912375   20.680042
 H   17.039250   16.730587   20.335134
 H   18.203473   20.196333   21.200365
 H   18.246300   19.451944   19.598584
 H   16.832764   19.229314   20.643767
