38 
4yo6_ligand_ani-2x.xyz
 N   30.339848    6.674697   -7.125912
 C   30.821262    5.649674   -7.918642
 O   30.609431    4.466977   -7.701870
 C   31.607756    6.114666   -9.067555
 C   32.289275    5.319768  -10.011669
 N   32.903132    6.026317  -10.946242
 N   32.625517    7.318695  -10.626634
 C   31.843594    7.436078   -9.497465
 N   31.456231    8.646329   -9.022306
 C   31.864817    9.697979   -9.705482
 C   32.672629    9.634476  -10.868440
 C   33.052652    8.407861  -11.324562
 C   29.524560    6.493166   -6.021223
 C   29.225994    5.361480   -5.293694
 C   28.435502    5.829192   -4.221733
 N   28.254711    7.140605   -4.282963
 N   28.896321    7.546704   -5.408227
 C   27.836007    5.032876   -3.100917
 C   28.851209    8.920994   -5.755622
 C   28.872118    9.852136   -4.719548
 C   28.852441   11.209658   -5.011155
 C   28.781663   11.645973   -6.331477
 C   28.722128   10.711410   -7.359058
 C   28.753023    9.348670   -7.080613
 H   30.656927    7.615673   -7.355537
 H   32.346431    4.238840  -10.030269
 H   31.550276   10.667968   -9.330079
 H   32.977257   10.538016  -11.380057
 H   33.664062    8.203490  -12.194494
 H   29.542885    4.355184   -5.515257
 H   27.136611    4.282252   -3.484824
 H   28.610806    4.501187   -2.537774
 H   27.300082    5.700426   -2.422672
 H   28.903988    9.495458   -3.693865
 H   28.884555   11.930668   -4.198180
 H   28.762607   12.709013   -6.553367
 H   28.665733   11.039483   -8.394768
 H   28.705360    8.628660   -7.891552
