38 
4yo6_ligand_aiqm1.xyz
 N   30.183292    6.750743   -7.231220
 C   30.535988    5.742470   -8.087531
 O   30.179771    4.584059   -7.957306
 C   31.376235    6.185574   -9.213083
 C   31.817084    5.398477  -10.289200
 N   32.571000    6.074950  -11.159066
 N   32.625761    7.324114  -10.640170
 C   31.915838    7.446484   -9.457100
 N   31.854553    8.617442   -8.779505
 C   32.502520    9.631541   -9.306166
 C   33.243775    9.561781  -10.519702
 C   33.294290    8.370973  -11.185542
 C   29.505555    6.533881   -6.040115
 C   29.316208    5.397169   -5.292682
 C   28.605196    5.851136   -4.152373
 N   28.392635    7.159449   -4.188158
 N   28.933817    7.573442   -5.367842
 C   28.118567    5.059601   -2.983140
 C   28.768650    8.918157   -5.775142
 C   28.946057    9.935875   -4.838045
 C   28.764603   11.260058   -5.221597
 C   28.406570   11.571820   -6.533104
 C   28.216171   10.548597   -7.458569
 C   28.387653    9.218578   -7.082951
 H   30.614439    7.654332   -7.379642
 H   31.603227    4.356060  -10.452058
 H   32.458962   10.568214   -8.765941
 H   33.756709   10.429449  -10.904244
 H   33.816885    8.172029  -12.109713
 H   29.611458    4.399015   -5.557839
 H   27.414766    4.288415   -3.299424
 H   28.944477    4.561027   -2.472639
 H   27.619227    5.725082   -2.280730
 H   29.190153    9.671170   -3.818373
 H   28.896137   12.049876   -4.493527
 H   28.262883   12.603310   -6.826394
 H   27.918010   10.782262   -8.472538
 H   28.230274    8.416089   -7.793326
