38 
4yo6_ligand_xtb.xyz
 N   30.212988    6.619914   -7.207930
 C   30.746004    5.602978   -7.952218
 O   30.576584    4.422987   -7.731740
 C   31.548403    6.114491   -9.075201
 C   32.227288    5.368375  -10.049513
 N   32.858741    6.133771  -10.926984
 N   32.617303    7.381599  -10.560495
 C   31.810624    7.443375   -9.418557
 N   31.446418    8.604403   -8.878879
 C   31.865153    9.701808   -9.450209
 C   32.678480    9.706949  -10.603042
 C   33.048951    8.510351  -11.149945
 C   29.454103    6.462344   -6.065718
 C   29.180084    5.354363   -5.296402
 C   28.440597    5.850021   -4.202968
 N   28.285909    7.155119   -4.294449
 N   28.886134    7.535830   -5.437979
 C   27.884245    5.075019   -3.063754
 C   28.877923    8.880086   -5.823994
 C   28.994321    9.858653   -4.840400
 C   28.990815   11.194044   -5.192679
 C   28.873649   11.565491   -6.522816
 C   28.729167   10.593225   -7.497645
 C   28.720261    9.252698   -7.156418
 H   30.445095    7.571502   -7.478527
 H   32.269796    4.300825  -10.131202
 H   31.549662   10.624305   -8.984333
 H   33.000746   10.635363  -11.041972
 H   33.667518    8.399862  -12.027636
 H   29.474117    4.346842   -5.497914
 H   27.193066    4.316065   -3.426777
 H   28.684777    4.572365   -2.522877
 H   27.360173    5.745729   -2.389075
 H   29.076727    9.548394   -3.810936
 H   29.083577   11.949816   -4.427128
 H   28.878276   12.610149   -6.796183
 H   28.606229   10.877093   -8.532687
 H   28.555494    8.506493   -7.918519
