19 
4ypf_ligand_aiqm1.xyz
 C   66.136536    8.166945   18.578680
 C   61.405105    7.786496   19.948905
 C   62.743952    7.156551   18.033583
 C   62.502933    8.327293   20.568342
 N   67.334320    9.237629   20.412164
 C   66.128948    8.787684   19.863813
 C   64.932520    8.848609   20.533500
 C   63.771914    8.300281   19.935361
 C   63.891428    7.707902   18.653430
 N   65.085353    7.650581   17.991020
 C   61.527916    7.194587   18.667070
 H   67.079943    8.105012   18.039636
 H   60.439596    7.809378   20.438578
 H   62.862744    6.708960   17.054927
 H   62.415069    8.780086   21.548950
 H   68.010074    9.523204   19.720266
 H   67.219491    9.951904   21.114746
 H   64.868119    9.303837   21.518199
 H   60.654539    6.770759   18.189830
