19 
4ypf_ligand_xtb.xyz
 C   66.120774    8.185150   18.570050
 C   61.417847    7.777400   19.944073
 C   62.753013    7.155931   18.041730
 C   62.503688    8.328397   20.564921
 N   67.301143    9.262337   20.389226
 C   66.122087    8.807682   19.845627
 C   64.922406    8.865072   20.523174
 C   63.768039    8.312700   19.941123
 C   63.890571    7.714825   18.655974
 N   65.071967    7.670747   18.005029
 C   61.541974    7.187551   18.675764
 H   67.046024    8.124539   18.007938
 H   60.451627    7.791833   20.427588
 H   62.872635    6.708417   17.067392
 H   62.411319    8.782921   21.541732
 H   68.055772    9.443975   19.748286
 H   67.227595    9.909646   21.157185
 H   64.862758    9.330174   21.498553
 H   60.669259    6.758403   18.205635
