19 
4ypf_ligand_ani-2x.xyz
 C   66.133026    8.168648   18.577861
 C   61.406198    7.784513   19.949154
 C   62.743040    7.156280   18.033073
 C   62.499993    8.324846   20.569354
 N   67.325877    9.251153   20.406903
 C   66.129664    8.790508   19.865379
 C   64.932650    8.846576   20.537071
 C   63.772254    8.301229   19.937199
 C   63.891266    7.710113   18.655916
 N   65.086408    7.655130   17.994801
 C   61.529207    7.193641   18.666718
 H   67.077826    8.107099   18.033078
 H   60.433726    7.803724   20.434596
 H   62.865237    6.709569   17.050313
 H   62.414091    8.780500   21.553915
 H   68.028134    9.494669   19.723026
 H   67.225604    9.970056   21.110011
 H   64.865931    9.300584   21.524692
 H   60.650370    6.768861   18.187940
