20 
4yrc_ligand_aiqm1.xyz
 C   65.735537    9.039228   20.751463
 C   64.398821    8.822850   20.910268
 C   63.642915    8.237870   19.859591
 C   62.254192    7.976477   19.932942
 C   61.612889    7.405789   18.859083
 C   62.312408    7.072046   17.676778
 C   63.661401    7.320619   17.592466
 O   64.363610    7.014473   16.476301
 C   64.351007    7.909573   18.688269
 N   65.689419    8.119782   18.526626
 C   66.353742    8.670199   19.515236
 N   67.694717    8.949015   19.313966
 H   66.328697    9.493419   21.535427
 H   63.905522    9.095281   21.835317
 H   61.709838    8.229967   20.833649
 H   60.550352    7.205228   18.910512
 H   61.801199    6.624545   16.835011
 H   65.273079    7.294087   16.658192
 H   68.263714    8.971348   20.143266
 H   68.107539    8.432804   18.553038
