24 
4yrr_ligand_ani-2x.xyz
 O    8.387564   -5.726586   31.429783
 C    8.112766   -5.242240   32.512276
 C    6.838196   -4.448781   32.721462
 N    8.900557   -5.354677   33.631253
 C   10.128559   -6.025151   33.749859
 C   10.745432   -6.691014   32.723804
 C   11.984854   -7.325501   32.981790
 C   12.532598   -7.245469   34.284658
 N   11.902109   -6.575383   35.298768
 C   10.763091   -6.002603   35.027741
 C   12.693487   -8.037582   31.977383
 C   13.889781   -8.638497   32.264560
 C   14.435093   -8.556250   33.569952
 C   13.773084   -7.875931   34.557982
 H    6.840521   -3.608489   32.023124
 H    5.991245   -5.088801   32.463128
 H    6.707201   -4.071023   33.739051
 H    8.565750   -4.909925   34.472238
 H   10.292603   -6.728721   31.740704
 H   10.281304   -5.475261   35.853138
 H   12.264752   -8.093912   30.978138
 H   14.430368   -9.182815   31.494671
 H   15.385931   -9.038415   33.783072
 H   14.167153   -7.796573   35.566767
