27 
4yrs_ligand_ani-2x.xyz
 N   63.231116    7.788181   20.133971
 C   64.863509    6.835918   18.069214
 C   64.580078    7.981230   20.182194
 C   62.721176    7.152828   19.111630
 C   63.503988    6.644944   18.030246
 C   65.126629    8.670902   21.295341
 C   61.410044    4.878204   15.392387
 C   61.632050    5.595655   16.718553
 C   66.842463    7.753127   19.275908
 C   67.344388    8.420806   20.359913
 C   66.476568    8.884693   21.380708
 O   60.727057    5.819852   17.501386
 C   60.024597    4.256248   15.296694
 N   62.939865    5.969692   16.932216
 C   65.445875    7.516807   19.160936
 H   65.508409    6.469533   17.271717
 H   61.645974    7.008391   19.093235
 H   64.437512    9.014348   22.061288
 H   62.190444    4.116653   15.263056
 H   61.557799    5.611309   14.587226
 H   67.500684    7.393668   18.487492
 H   68.412668    8.601339   20.447628
 H   66.892174    9.413391   22.234930
 H   59.881433    3.501533   16.075199
 H   59.251268    5.016734   15.434703
 H   59.880749    3.779689   14.322029
 H   63.606380    5.707425   16.220496
