29 
4yrt_ligand_aiqm1.xyz
 O   62.036296    4.589931   14.830274
 C   61.031488    4.904423   15.433586
 C   59.635654    4.457070   15.028199
 C   59.646914    3.577270   13.788633
 N   61.026865    5.700389   16.553875
 C   62.105504    6.301485   17.226544
 C   61.828885    7.061911   18.340432
 C   62.857226    7.700361   19.073715
 C   62.566035    8.481579   20.219291
 C   63.582892    9.088874   20.910633
 C   64.926700    8.951389   20.501840
 C   65.229851    8.199334   19.395417
 O   66.546663    8.101849   19.047417
 C   64.203501    7.550774   18.647608
 C   64.456883    6.761801   17.497318
 C   63.451479    6.148114   16.795226
 H   59.028274    5.352645   14.862968
 H   59.191027    3.926848   15.876404
 H   60.084988    4.108760   12.946052
 H   60.247158    2.685407   13.957782
 H   58.635038    3.273344   13.523255
 H   60.121675    5.881405   16.953568
 H   60.803190    7.185021   18.677921
 H   61.537773    8.590705   20.537566
 H   63.362235    9.686252   21.786289
 H   65.728111    9.430010   21.046683
 H   66.634307    7.556624   18.263818
 H   65.473537    6.625128   17.142385
 H   63.672851    5.552795   15.922500
