42 
4ytc_ligand_aiqm1.xyz
 C   16.304300   13.887591    6.102931
 C   15.235192   14.173411    5.257650
 C   15.424937   14.995896    4.142248
 N   11.619688   12.858865    1.429395
 C   13.536464   13.050013    2.864101
 C   13.483135   14.437447    2.688808
 N   12.550983   15.011665    1.908594
 C   17.744903   15.274554    4.771410
 C   16.685856   15.553235    3.913707
 C   12.574634   12.315682    2.197981
 C   11.680709   14.189727    1.337896
 N   10.493193   10.319531    1.317433
 C   11.687082    9.999861    1.866735
 N   12.119533    8.781771    2.123389
 C   13.321657    9.015102    2.748016
 N   14.049911    7.940539    3.163721
 C   15.297613    7.867044    3.802605
 C   16.156070    8.960170    3.967560
 C   17.382422    8.780430    4.602802
 C   17.778269    7.533176    5.074863
 C   16.924644    6.446878    4.904722
 C   15.697001    6.611612    4.274865
 N   13.666932   10.277568    2.900453
 N   12.584516   10.931052    2.305259
 N   14.361405   15.307486    3.261654
 C   17.562110   14.432726    5.865672
 H   16.144652   13.239592    6.953801
 H   14.254180   13.758685    5.452234
 H   14.288023   12.560746    3.458611
 H   18.713878   15.713261    4.576422
 H   16.833640   16.209250    3.063052
 H   10.924914   14.653980    0.717993
 H   10.042575    9.572453    0.820237
 H   10.412557   11.259406    0.955184
 H   13.574423    7.065766    3.023673
 H   15.863305    9.933442    3.603196
 H   18.038213    9.633443    4.725722
 H   18.734011    7.409341    5.564242
 H   17.208094    5.465100    5.261108
 H   15.036808    5.761247    4.144842
 H   14.296615   16.251543    2.918832
 H   18.387154   14.209514    6.527183
