37 
4yuz_ligand_ani-2x.xyz
 C   -3.966230  -20.890682  -55.356817
 C   -1.824775  -16.557940  -58.551009
 C   -4.120912  -15.995185  -58.178218
 C   -1.669098  -16.815359  -57.193622
 C   -3.967965  -16.254007  -56.818531
 C   -5.143415  -21.289650  -54.785728
 C   -3.465522  -19.587118  -55.171742
 C   -5.402165  -19.069177  -53.782538
 C   -3.056431  -16.143309  -59.066019
 C   -2.737552  -16.669896  -56.310690
 C   -5.887290  -20.384511  -53.988977
 C   -4.167189  -18.683705  -54.392253
 C   -6.247214  -18.244244  -52.939416
 C   -7.718223  -19.977103  -52.716188
 C   -3.222448  -15.864727  -60.539941
 C   -2.552141  -16.940138  -54.831632
 N   -7.050751  -20.839573  -53.453994
 N   -7.379448  -18.702659  -52.425566
 N   -5.945322  -16.965355  -52.639326
 N   -8.909651  -20.392525  -52.187307
 O   -3.728555  -17.402510  -54.169793
 H   -3.396771  -21.588323  -55.966659
 H   -0.979036  -16.682035  -59.224635
 H   -5.089617  -15.671273  -58.556888
 H   -0.698942  -17.135329  -56.816180
 H   -4.812026  -16.137785  -56.142527
 H   -5.543704  -22.289772  -54.919432
 H   -2.531613  -19.320033  -55.652888
 H   -2.543792  -15.070955  -60.873260
 H   -3.001393  -16.755096  -61.140053
 H   -4.243393  -15.550121  -60.774892
 H   -2.295376  -16.015842  -54.301982
 H   -1.721897  -17.637674  -54.661833
 H   -5.037627  -16.598197  -52.862609
 H   -6.533692  -16.513783  -51.955622
 H   -9.054975  -21.389330  -52.155044
 H   -9.266448  -19.843579  -51.421589
