35 
4yv1_ligand_ani-2x.xyz
 C  -11.081242  -18.342761  -53.792079
 C  -15.447909  -20.328269  -54.322451
 C  -12.078979  -19.128352  -53.275769
 C  -14.341833  -20.158022  -53.536935
 C  -11.227388  -17.740742  -55.064315
 C  -15.489732  -19.692465  -55.588147
 C  -13.272700  -19.353257  -54.012408
 C  -13.428094  -18.757231  -55.289584
 C  -12.364335  -17.952570  -55.784988
 C  -13.297397  -16.255928  -57.041069
 C  -12.315133  -13.873005  -59.891528
 C  -13.215620  -13.501460  -58.708688
 C  -11.719651  -15.275657  -59.729991
 C  -14.265904  -14.586892  -58.470758
 C  -12.824848  -16.298064  -59.466842
 N  -14.531998  -18.937525  -56.065764
 N  -13.624737  -15.886964  -58.316344
 O  -13.658677  -15.699932  -56.030939
 O  -12.508364  -17.368230  -57.037270
 H  -10.169413  -18.169254  -53.226238
 H  -16.286746  -20.937550  -53.997851
 H  -11.975300  -19.592705  -52.297625
 H  -14.261934  -20.627390  -52.559100
 H  -10.452764  -17.102237  -55.473437
 H  -16.363869  -19.822972  -56.224102
 H  -11.514341  -13.133001  -60.003390
 H  -12.903993  -13.835873  -60.820406
 H  -13.706027  -12.536188  -58.885091
 H  -12.613572  -13.391584  -57.797549
 H  -11.018548  -15.295326  -58.885750
 H  -11.151240  -15.558745  -60.624206
 H  -14.954179  -14.645832  -59.323695
 H  -14.850141  -14.393546  -57.570169
 H  -12.429334  -17.298525  -59.291312
 H  -13.502256  -16.346544  -60.329012
