76 
4yv8_ligand_xtb.xyz
 C    0.998877    4.012169    0.115732
 C    0.441173    3.742613   -1.286718
 C   -0.937210    3.082785   -1.308672
 C   -1.979699    3.829921   -0.469748
 N   -3.331011    3.374686   -0.705609
 C   -3.894875    2.361732   -0.011470
 N   -5.212654    2.094913   -0.241142
 N   -3.197853    1.738645    0.891560
 C    2.338126    2.195635    1.034236
 O    3.345504    2.540921    0.421103
 N    1.151944    2.839601    0.941819
 N    2.360910    1.171750    1.939560
 C    3.511563    0.292392    2.016171
 C    3.383583   -0.713074    0.863748
 O    3.059652   -1.885594    1.051236
 C    3.538700   -0.407363    3.382733
 O    2.402073   -1.191846    3.607061
 N    3.578726   -0.154963   -0.333804
 C    3.200148   -0.737470   -1.616637
 C    1.662479   -0.808946   -1.682572
 O    1.016885   -0.072229   -2.401391
 C    3.888905   -2.084865   -1.890012
 C    5.404832   -1.900102   -1.885191
 C    3.418979   -2.637930   -3.232472
 N    1.110777   -1.743839   -0.883330
 C   -0.319206   -1.748850   -0.660772
 C   -0.748005   -0.460661    0.062008
 O   -1.914315   -0.048733   -0.323474
 C   -0.707940   -2.971166    0.178210
 C   -2.163649   -2.972700    0.647960
 C   -3.177470   -3.034892   -0.501346
 N   -4.547223   -3.030368   -0.037170
 C   -5.268199   -1.884814    0.212138
 N   -5.012990   -0.699412   -0.176344
 N   -6.404012   -2.097585    0.966732
 O   -0.059937    0.077110    0.901516
 H    1.998188    4.443233    0.012708
 H    0.361682    4.726031    0.645576
 H    1.135163    3.091995   -1.820653
 H    0.399973    4.699418   -1.812589
 H   -1.278237    3.037911   -2.345689
 H   -0.849192    2.058700   -0.956280
 H   -1.787357    3.678808    0.593354
 H   -1.941097    4.899609   -0.697480
 H   -3.799172    3.709301   -1.531498
 H   -5.462635    1.113246   -0.081425
 H   -5.642370    2.517064   -1.049097
 H   -3.776551    1.107259    1.435908
 H    0.325034    2.355133    1.255098
 H    1.482392    0.744079    2.201076
 H    4.410986    0.903703    1.886177
 H    3.560497    0.345045    4.174530
 H    4.453656   -1.016111    3.443205
 H    2.353847   -1.810548    2.858942
 H    3.750701    0.851229   -0.327894
 H    3.510325   -0.022019   -2.384902
 H    3.622747   -2.789515   -1.098759
 H    5.740355   -1.513626   -0.926080
 H    5.706808   -1.203243   -2.664410
 H    5.898833   -2.852167   -2.063475
 H    2.341482   -2.781844   -3.237080
 H    3.674290   -1.949965   -4.035653
 H    3.896990   -3.593901   -3.432334
 H    1.696110   -2.154013   -0.159867
 H   -0.815510   -1.757671   -1.636965
 H   -2.321883    0.797410    0.247140
 H   -0.506681   -3.872161   -0.405848
 H   -0.063644   -2.986922    1.060896
 H   -2.361213   -2.079337    1.243625
 H   -2.314065   -3.840121    1.296806
 H   -3.041133   -2.181601   -1.166432
 H   -3.023944   -3.949462   -1.083371
 H   -4.791128   -3.820592    0.542339
 H   -4.117616   -0.598318   -0.640481
 H   -6.841432   -3.001454    0.886300
 H   -7.048170   -1.322876    0.952188
