52 
4z0k_ligand_aiqm1.xyz
 O    1.733395    2.908357   -1.164265
 C    1.501932    1.722814   -0.964712
 C    2.525280    0.855215   -0.284847
 C    2.218512   -0.330047    0.387979
 C    3.218122   -1.073491    1.006020
 C    4.539842   -0.636434    0.944110
 N    5.559677   -1.399070    1.564236
 C    5.687367   -2.759203    1.599875
 N    6.757095   -3.107235    2.262240
 N    7.367121   -1.942100    2.694124
 C    6.641862   -0.944991    2.264721
 C    4.861422    0.549864    0.283727
 C    3.852047    1.290079   -0.315186
 N    0.366075    1.101354   -1.336008
 C   -0.800808    1.746774   -1.981174
 C   -0.404770    2.278252   -3.357377
 C   -1.866364    0.652365   -2.127381
 C   -2.447941    0.304710   -0.788016
 C   -3.186559   -0.783716   -0.345559
 C   -3.654866   -1.984586   -0.938125
 O   -3.327437   -2.170365   -2.248481
 C   -4.375710   -2.857882   -0.184224
 C   -4.648896   -2.555534    1.184757
 C   -1.332257    2.889604   -1.100807
 C   -1.620351    2.446527    0.338982
 C   -2.348288    1.137850    0.333115
 N   -2.968657    0.623301    1.408074
 N   -3.474704   -0.546119    0.977903
 C   -4.208687   -1.413787    1.774868
 C   -4.443248   -1.010098    3.192296
 H    1.192760   -0.668519    0.473178
 H    2.974493   -1.979296    1.547377
 H    5.000286   -3.431015    1.115703
 H    6.833486    0.097757    2.447940
 H    5.891914    0.881301    0.241706
 H    4.067737    2.222906   -0.815627
 H    0.287404    0.113088   -1.176459
 H   -0.070193    1.457526   -3.995571
 H    0.400097    3.002419   -3.255826
 H   -1.263560    2.762865   -3.825075
 H   -1.425887   -0.222123   -2.616435
 H   -2.655556    1.012131   -2.795822
 H   -3.717879   -2.994592   -2.546536
 H   -4.749609   -3.779811   -0.607608
 H   -5.224657   -3.255790    1.770088
 H   -2.254127    3.251961   -1.566324
 H   -0.614524    3.706018   -1.109637
 H   -0.682973    2.341556    0.895634
 H   -2.214612    3.195376    0.863348
 H   -4.969944   -0.057000    3.232884
 H   -5.030629   -1.773753    3.697453
 H   -3.494535   -0.875414    3.711646
