52 
4z0k_ligand_ani-2x.xyz
 O    1.780717    2.937532   -1.197587
 C    1.568732    1.758332   -0.938659
 C    2.597707    0.909028   -0.261504
 C    2.281972   -0.237633    0.473253
 C    3.281140   -0.980016    1.085543
 C    4.611762   -0.581458    0.957544
 N    5.640675   -1.347206    1.571240
 C    5.698829   -1.812479    2.856521
 N    6.797994   -2.479455    3.063705
 N    7.507199   -2.472280    1.885940
 C    6.808538   -1.797262    1.018654
 C    4.938219    0.567617    0.238688
 C    3.930567    1.312944   -0.354247
 N    0.403799    1.127300   -1.255490
 C   -0.762790    1.775302   -1.862933
 C   -0.403256    2.394061   -3.214542
 C   -1.834073    0.689335   -2.068391
 C   -2.448925    0.280595   -0.771548
 C   -3.214646   -0.833266   -0.428650
 C   -3.665969   -1.992334   -1.085244
 O   -3.305059   -2.122948   -2.380825
 C   -4.432544   -2.896795   -0.383199
 C   -4.763565   -2.661852    0.971097
 C   -1.332233    2.870925   -0.929397
 C   -1.678851    2.358547    0.474977
 C   -2.418238    1.056706    0.388176
 N   -3.085817    0.511174    1.397773
 N   -3.573499   -0.648014    0.896739
 C   -4.335088   -1.531369    1.620911
 C   -4.618511   -1.171642    3.040863
 H    1.246993   -0.547275    0.608534
 H    3.035941   -1.881216    1.641885
 H    4.928425   -1.621844    3.591103
 H    7.084117   -1.618449   -0.011596
 H    5.976435    0.881288    0.166664
 H    4.160466    2.222485   -0.901150
 H    0.339310    0.134830   -1.087826
 H   -0.035845    1.621136   -3.897814
 H    0.372627    3.150794   -3.090510
 H   -1.291886    2.859635   -3.655390
 H   -1.402469   -0.175052   -2.583759
 H   -2.611162    1.083037   -2.738505
 H   -3.667677   -2.942610   -2.745695
 H   -4.790294   -3.803338   -0.872587
 H   -5.368580   -3.386275    1.508087
 H   -2.239520    3.264532   -1.407037
 H   -0.610230    3.689079   -0.866807
 H   -0.758013    2.209895    1.053917
 H   -2.273993    3.100260    1.015936
 H   -5.141032   -0.211070    3.107025
 H   -5.238043   -1.941242    3.508156
 H   -3.690659   -1.071990    3.614858
