38 
4z6h_ligand_ani-2x.xyz
 O  113.648114  140.676903    7.251538
 C  112.972231  141.113878    6.335274
 C  113.348986  142.422481    5.661712
 C  112.226691  143.102618    4.891194
 C  111.516268  142.071974    4.026522
 C  110.893752  141.023225    4.932317
 N  111.886704  140.419846    5.825128
 C  111.618321  139.111372    6.314595
 C  110.315194  138.735228    6.594711
 C  109.999921  137.439162    7.022956
 N  108.686949  137.077592    7.297488
 C  107.625291  138.060678    7.148523
 C  108.314907  135.792016    7.720681
 O  107.146329  135.512808    7.951521
 C  109.421905  134.839267    7.856035
 C  110.704952  135.151411    7.596065
 C  111.789176  134.117156    7.756256
 C  111.043455  136.494374    7.158381
 C  112.358327  136.899493    6.863291
 C  112.657019  138.176939    6.458991
 H  114.176760  142.175771    4.983346
 H  113.768685  143.065184    6.439904
 H  112.631740  143.921037    4.287292
 H  111.506882  143.543898    5.592891
 H  112.224472  141.594462    3.339103
 H  110.728548  142.530284    3.418837
 H  110.454171  140.220180    4.335590
 H  110.084379  141.484585    5.519787
 H  109.528492  139.474159    6.485697
 H  107.756789  138.889894    7.853599
 H  107.604981  138.456582    6.126744
 H  106.684414  137.556347    7.361210
 H  109.138529  133.843725    8.184417
 H  112.533542  134.433768    8.494821
 H  111.367514  133.164798    8.090984
 H  112.311301  133.939951    6.809795
 H  113.168752  136.182700    6.970256
 H  113.682455  138.459854    6.254145
