50 
4z7n_ligand_ani-2x.xyz
 N    1.469587    0.636909    1.956785
 C    2.262691    1.869602    1.658186
 C    2.717158    1.724267    0.204142
 O    3.212214    0.662527   -0.169717
 C    3.488814    1.981368    2.557635
 N    2.551452    2.779477   -0.625737
 C    2.632618    2.585688   -2.070851
 C    1.373192    1.891850   -2.598970
 O    0.507469    2.492210   -3.213637
 N    1.287225    0.563499   -2.286026
 C    0.013946   -0.115216   -2.339682
 C   -0.390481   -0.526576   -0.912364
 O    0.451033   -0.860977   -0.080816
 C    0.068918   -1.332712   -3.270122
 C   -1.299844   -1.809628   -3.692131
 O   -2.354290   -1.278511   -3.410047
 O   -1.235778   -2.906768   -4.460064
 N   -1.718177   -0.499279   -0.678786
 C   -2.369406   -0.611991    0.615989
 C   -2.228850    0.710280    1.366541
 O   -1.205334    1.352488    1.477153
 C   -1.901067   -1.803615    1.483833
 C   -2.748063   -1.894562    2.754945
 C   -1.964051   -3.103450    0.685621
 O   -3.380011    1.100510    1.930245
 H    1.698011   -0.084867    1.246381
 H    0.457718    0.832738    1.854700
 H    1.649707    0.268997    2.902492
 H    1.605617    2.738250    1.771087
 H    3.198414    2.018740    3.612330
 H    4.148461    1.124296    2.393280
 H    4.046553    2.892212    2.323988
 H    2.005983    3.561493   -0.295079
 H    3.518625    1.981371   -2.277475
 H    2.727447    3.557410   -2.555075
 H    1.975060    0.185112   -1.637778
 H   -0.711522    0.600183   -2.742507
 H    0.618039   -2.166058   -2.816986
 H    0.613986   -1.047475   -4.176385
 H   -2.151055   -3.130824   -4.699599
 H   -2.311850   -0.403665   -1.492951
 H   -3.436378   -0.744581    0.414390
 H   -0.856967   -1.627536    1.765848
 H   -2.619226   -1.017243    3.395169
 H   -2.468963   -2.779726    3.336043
 H   -3.812883   -1.977867    2.506053
 H   -2.976766   -3.294850    0.307056
 H   -1.681340   -3.951162    1.319351
 H   -1.277337   -3.079671   -0.166497
 H   -3.200301    1.937436    2.392140
