51 
4z7q_ligand_xtb.xyz
 N   -2.392867    1.748164   -1.079104
 C   -3.252528    0.899143   -0.225536
 C   -2.805856   -0.539663   -0.560954
 O   -2.197726   -0.724191   -1.605949
 C   -4.724446    1.099097   -0.559296
 N   -3.176908   -1.485441    0.297547
 C   -2.633105   -2.834138    0.239539
 C   -1.207477   -2.738667    0.809386
 O   -0.956561   -2.900737    1.978327
 N   -0.293083   -2.382780   -0.125234
 C    0.948795   -1.761792    0.279730
 C    0.664793   -0.253930    0.437520
 O   -0.491523    0.154256    0.457434
 C    2.047125   -2.118395   -0.734879
 C    3.450119   -2.053504   -0.169902
 O    3.892973   -1.121952    0.461314
 O    4.148405   -3.130728   -0.457090
 N    1.714252    0.550868    0.569065
 C    1.574597    1.999673    0.545504
 C    0.230635    2.383994    1.179279
 O   -0.702409    2.891753    0.564503
 C    1.729916    2.565703   -0.881540
 C    3.006795    2.037780   -1.531981
 C    1.762994    4.091539   -0.836963
 N    0.188276    2.212671    2.501470
 H   -1.986309    1.056015   -1.757821
 H   -1.613790    2.193992   -0.500363
 H   -2.912925    2.478477   -1.566184
 H   -3.048507    1.116033    0.824017
 H   -5.345065    0.442448    0.043261
 H   -5.025021    2.124405   -0.356545
 H   -4.912537    0.871478   -1.606432
 H   -3.564322   -1.208353    1.187022
 H   -3.244376   -3.491182    0.855741
 H   -2.628097   -3.175611   -0.796228
 H   -0.644217   -2.099153   -1.032029
 H    1.192601   -2.164148    1.271598
 H    1.994588   -1.447548   -1.596908
 H    1.878129   -3.137446   -1.085371
 H    5.055315   -3.091259   -0.107596
 H    2.656295    0.155266    0.570542
 H    2.370746    2.414897    1.173475
 H    0.866654    2.240606   -1.472472
 H    3.138081    2.498584   -2.507110
 H    3.873736    2.281022   -0.922572
 H    2.973410    0.960219   -1.670059
 H    1.842054    4.489289   -1.844819
 H    0.862938    4.493126   -0.380957
 H    2.624346    4.434013   -0.268672
 H    0.945336    1.792234    3.012428
 H   -0.653741    2.442732    3.005852
