52 
4z93_ligand_xtb.xyz
 C   16.308924   -7.462854    9.550935
 C   18.142489   -5.508698    8.691943
 C   18.980519   -4.507102    8.212951
 C   20.182122   -3.919299    8.656893
 C   21.014951   -4.027967    9.782098
 C   15.111675   -6.862273    5.591856
 C   14.528498   -4.742981    5.436729
 C   21.473514   -5.462138   11.846758
 N   13.601961   -5.442984    4.843746
 O   13.956854   -6.748753    4.920112
 C   20.644549   -4.667199   10.989621
 C   20.577333   -3.034927    7.584354
 C   15.692300   -8.215870    5.758122
 C   15.542239   -5.609196    5.956310
 C   16.737422   -5.212511    6.691576
 C   18.711001   -3.867652    6.927420
 C   17.030100   -5.856869    7.952653
 N   20.703251   -5.943231   12.793493
 C   14.457763   -3.264976    5.534058
 O   16.122232   -6.775667    8.334303
 C   22.882550   -5.863459   11.637085
 C   19.373653   -4.671996   11.672235
 C   18.186277   -3.869820   11.384163
 C   17.493070   -3.168130   12.526081
 C   16.841096   -4.341469   11.879401
 C   22.605029   -2.706566    8.762970
 C   21.793178   -2.405990    7.641380
 C   17.556755   -4.235922    6.201582
 N   19.522860   -5.367730   12.777832
 N   22.253029   -3.463824    9.757261
 N   19.637551   -2.997858    6.578660
 H   17.224777   -8.060962    9.534193
 H   16.342521   -6.772931   10.398357
 H   15.447312   -8.120538    9.652702
 H   18.370478   -5.991867    9.627964
 H   15.297101   -8.685650    6.657805
 H   15.426063   -8.832142    4.902666
 H   16.773458   -8.151091    5.845047
 H   15.011021   -2.809188    4.713815
 H   13.422013   -2.945065    5.465484
 H   14.893567   -2.926021    6.471183
 H   22.996311   -6.363543   10.675737
 H   23.520468   -4.982303   11.632547
 H   23.189573   -6.539973   12.429824
 H   18.212103   -3.358207   10.430103
 H   17.092505   -2.183002   12.341999
 H   17.912486   -3.307680   13.509620
 H   16.826931   -5.266388   12.436364
 H   15.980421   -4.177454   11.247406
 H   23.602466   -2.289195    8.826681
 H   22.141325   -1.757075    6.854585
 H   17.358656   -3.765013    5.252535
