52 
4z93_ligand_aiqm1.xyz
 C   16.379751   -7.493776    9.521539
 C   18.117441   -5.515309    8.699493
 C   18.990735   -4.480989    8.229395
 C   20.155280   -3.918711    8.665854
 C   21.044764   -4.121431    9.790482
 C   15.145813   -6.806171    5.482425
 C   14.427017   -4.726973    5.539538
 C   21.494269   -5.335436   11.983592
 N   13.504849   -5.407597    4.906962
 O   13.959408   -6.721185    4.860079
 C   20.663942   -4.642153   10.989570
 C   20.596041   -3.044841    7.570489
 C   15.786394   -8.143860    5.517405
 C   15.506298   -5.574449    5.938093
 C   16.716715   -5.177112    6.672473
 C   18.712069   -3.824077    6.924646
 C   17.037824   -5.854337    7.948886
 N   20.750066   -5.808603   12.933476
 C   14.250372   -3.267191    5.773449
 O   16.159332   -6.818368    8.285482
 C   22.946264   -5.650082   11.913861
 C   19.341098   -4.691452   11.648426
 C   18.144085   -3.910987   11.314633
 C   17.440048   -3.208076   12.458145
 C   16.791436   -4.382607   11.803738
 C   22.736751   -3.007037    8.636004
 C   21.856244   -2.565032    7.552389
 C   17.525758   -4.200043    6.195465
 N   19.418893   -5.341230   12.765592
 N   22.405312   -3.757281    9.632483
 N   19.617517   -2.962479    6.557948
 H   17.321182   -8.044519    9.498517
 H   16.388488   -6.792934   10.354638
 H   15.548012   -8.181601    9.627898
 H   18.311247   -5.997870    9.641227
 H   15.145166   -8.851483    6.044497
 H   15.944115   -8.512388    4.503513
 H   16.742174   -8.090876    6.035209
 H   15.015191   -2.691689    5.250008
 H   13.270064   -2.960945    5.414113
 H   14.339484   -3.032386    6.834813
 H   23.180422   -6.205673   11.003767
 H   23.534310   -4.733732   11.887645
 H   23.215264   -6.244479   12.784811
 H   18.156481   -3.369535   10.386583
 H   17.049749   -2.221126   12.255220
 H   17.860851   -3.360874   13.441939
 H   16.776224   -5.312151   12.357448
 H   15.953464   -4.194634   11.146518
 H   23.778121   -2.703379    8.589698
 H   22.240656   -1.953365    6.747391
 H   17.313848   -3.696688    5.263731
