52 
4zbi_ligand_ani-2x.xyz
 O   -9.206269  -22.923233    8.828984
 C   -8.485532  -22.974104    7.683139
 O   -7.595950  -23.778499    7.563807
 C   -8.864719  -22.022435    6.613916
 N   -9.468998  -20.797117    6.843292
 C   -9.691641  -20.220400    5.619812
 C   -9.718378  -20.050793    8.076304
 C   -9.630984  -18.538402    7.816337
 C  -10.518374  -18.118096    6.631918
 C  -10.168413  -18.929388    5.408653
 C  -10.262198  -18.514217    4.089767
 C   -9.877651  -19.372552    3.039954
 C   -9.392910  -20.644786    3.274792
 C   -9.257565  -21.084120    4.603439
 C   -8.698554  -22.229289    5.259194
 C   -7.937669  -23.339492    4.590303
 C   -6.418494  -23.111134    4.608115
 C   -5.988163  -21.835847    3.905158
 O   -6.282675  -21.984315    2.519226
 C   -6.388198  -20.871103    1.748365
 C   -7.002452  -21.079970    0.465333
 C   -7.412053  -22.364799    0.021285
 C   -8.026569  -22.519132   -1.196113
 C   -8.256140  -21.396781   -2.021043
 C   -7.861800  -20.147859   -1.618995
 C   -7.218773  -19.953922   -0.365476
 C   -6.783624  -18.667395    0.062468
 C   -6.173072  -18.516028    1.276107
 C   -5.973361  -19.619109    2.137331
 H   -9.966015  -22.334008    8.714783
 H   -8.988714  -20.345608    8.835170
 H  -10.721403  -20.285161    8.453647
 H   -8.589027  -18.269363    7.605176
 H   -9.924067  -18.010456    8.728896
 H  -10.413848  -17.045975    6.429869
 H  -11.572358  -18.290818    6.890055
 H  -10.630077  -17.517334    3.856483
 H   -9.953466  -19.018756    2.013473
 H   -9.102452  -21.268770    2.432888
 H   -8.279128  -23.426081    3.549957
 H   -8.152374  -24.293197    5.084816
 H   -5.916244  -23.958737    4.128125
 H   -6.075737  -23.075454    5.646569
 H   -4.910130  -21.669439    4.033779
 H   -6.527518  -20.974199    4.318866
 H   -7.229360  -23.217374    0.667114
 H   -8.340434  -23.505292   -1.528291
 H   -8.746101  -21.531591   -2.982532
 H   -8.030958  -19.281615   -2.254088
 H   -6.942693  -17.815153   -0.593114
 H   -5.838082  -17.532955    1.601987
 H   -5.484032  -19.460949    3.093501
