22 
4zly_ligand_xtb.xyz
 N   17.354068    4.837912    2.173771
 C   19.382558    5.542738    1.184340
 C   21.743189    6.664003    1.742475
 C   22.968077    7.258898    2.107445
 C   23.695443    7.166125   -0.181966
 C   20.248281    5.722731    0.084083
 C   18.040575    4.931998    1.024022
 O   17.596174    4.547699   -0.053670
 N   19.709343    5.905174    2.428867
 N   20.829809    6.441760    2.716271
 C   23.922696    7.503425    1.160558
 C   22.515420    6.587512   -0.565321
 C   21.511109    6.322007    0.383376
 N   19.877762    5.346527   -1.143378
 H   16.431301    4.439665    2.182506
 H   17.794019    5.178199    3.014259
 H   23.115294    7.507364    3.146348
 H   24.461645    7.366745   -0.916226
 H   24.861641    7.959104    1.438254
 H   22.358185    6.334527   -1.604236
 H   18.952752    4.929637   -1.223888
 H   20.479159    5.462751   -1.937888
