32 
4zme_ligand_aiqm1.xyz
 O   -2.558967    1.208536    1.270220
 C   -3.353306    1.369958    0.099696
 C   -2.855661    0.416999   -0.963127
 O   -1.554887    0.842042   -1.420502
 C   -2.703646   -1.028760   -0.495756
 O   -3.053223   -1.871844   -1.577189
 C   -1.218620   -1.134086   -0.173505
 O   -0.791207   -2.464153   -0.327629
 C   -0.605540   -0.170006   -1.196728
 N    0.626408    0.463599   -0.714813
 C    0.970213    1.795766   -0.738159
 N    2.176198    2.028933   -0.279696
 C    2.650185    0.775939    0.063373
 C    3.865376    0.334716    0.612241
 N    4.857032    1.188753    0.940904
 N    4.037403   -0.975530    0.836791
 C    3.028316   -1.809634    0.540990
 N    1.832585   -1.522957    0.028518
 C    1.703416   -0.200552   -0.197364
 H   -2.757005    1.917253    1.881298
 H   -4.403894    1.146189    0.312587
 H   -3.284969    2.391025   -0.283988
 H   -3.536236    0.468478   -1.815051
 H   -3.322105   -1.247514    0.378086
 H   -2.523310   -2.668230   -1.480974
 H   -1.028130   -0.748503    0.831267
 H    0.169466   -2.461214   -0.181831
 H   -0.381401   -0.690834   -2.134163
 H    0.276841    2.536702   -1.095788
 H    5.742368    0.809958    1.222198
 H    4.781279    2.152628    0.673429
 H    3.214819   -2.853755    0.752365
