27 
4zph_ligand_ani-2x.xyz
 C  169.806461 -110.336559 -113.582279
 C  168.958511 -111.357122 -113.899738
 C  169.001916 -112.596258 -113.186544
 C  169.912949 -112.755175 -112.169787
 C  173.418965 -111.233041 -109.391345
 C  174.322132 -110.286451 -108.970321
 C  174.356563 -109.013581 -109.621901
 C  173.506055 -108.730381 -110.650420
 C  171.656154 -109.467947 -112.152101
 N  171.665578 -111.942494 -110.808353
 C  170.810072 -111.712679 -111.810258
 C  172.554908 -109.690611 -111.109187
 C  170.761848 -110.469081 -112.530153
 C  172.516342 -110.971922 -110.458106
 N  168.160271 -113.637228 -113.575087
 N  175.243827 -110.561987 -107.961579
 H  169.763606 -109.398522 -114.132130
 H  168.238947 -111.245158 -114.707732
 H  169.990787 -113.677526 -111.602747
 H  173.357252 -112.216006 -108.934933
 H  175.080759 -108.274839 -109.285821
 H  173.541775 -107.758243 -111.138010
 H  171.652610 -108.509806 -112.672531
 H  167.303699 -113.344919 -114.021214
 H  167.993173 -114.334803 -112.863167
 H  174.972835 -111.304481 -107.331785
 H  175.580103 -109.751878 -107.462769
