63 
4zsa_ligand_xtb.xyz
 C  200.203813    4.398694   86.816380
 C  196.823250    3.782700   82.015262
 C  195.843352    6.244840   79.375121
 C  196.555838    7.161014   78.596383
 C  195.988130    7.705943   77.465179
 C  193.982521    6.454941   77.836020
 C  192.070667    6.559032   76.418377
 C  197.233145    6.451537   81.430233
 C  204.461319    2.012297   94.853893
 C  204.828684    3.003704   93.762584
 N  204.008001    2.827633   92.537864
 C  202.603948    3.284316   92.702830
 C  201.809685    2.958963   91.436463
 N  202.424929    3.652737   90.338085
 C  201.646176    3.875086   89.158680
 C  201.999775    4.948349   88.341434
 C  201.286996    5.202847   87.195273
 C  199.509018    4.762972   85.553697
 O  199.650656    5.881679   85.064784
 N  198.765248    3.765713   85.028647
 C  198.007403    3.686968   83.873157
 N  197.478390    2.475234   83.609611
 N  196.770519    2.517199   82.504079
 C  196.228804    4.316059   80.874487
 C  196.438359    5.651707   80.578648
 C  194.702056    7.364491   77.072248
 O  192.703515    6.039928   77.556421
 C  194.556329    5.904086   78.977236
 C  197.818514    5.952035   82.566745
 C  197.624992    4.606284   82.872070
 C  199.841747    3.345865   87.661391
 C  200.558503    3.082343   88.811509
 C  203.768275    3.177572   90.115985
 C  204.607297    3.495355   91.353025
 H  197.565046    7.426048   78.874169
 H  196.549494    8.409824   76.865384
 H  191.958257    7.647884   76.477234
 H  192.611855    6.302768   75.500257
 H  191.083222    6.098999   76.391037
 H  197.354883    7.498832   81.186514
 H  203.459123    2.176332   95.239105
 H  204.539881    0.987960   94.495552
 H  205.153283    2.127380   95.683313
 H  205.876406    2.864740   93.486275
 H  204.698734    4.029587   94.112004
 H  203.966440    1.822245   92.323718
 H  202.614527    4.364100   92.857696
 H  202.161781    2.793241   93.569217
 H  200.786409    3.317526   91.552044
 H  201.780816    1.859708   91.303042
 H  202.832310    5.578519   88.622016
 H  201.537540    6.033662   86.553664
 H  198.788954    2.859153   85.476277
 H  195.643689    3.683380   80.223225
 H  194.284660    7.809680   76.181978
 H  193.968695    5.211612   79.559511
 H  198.418699    6.574140   83.213512
 H  198.983753    2.727544   87.442473
 H  200.257203    2.255571   89.440004
 H  204.186903    3.688876   89.249302
 H  203.805579    2.088029   89.918205
 H  205.634027    3.148409   91.225445
 H  204.605075    4.571428   91.532226
