43 
4zt5_ligand_dft.xyz
 C  -42.679241   11.029481   10.431598
 C  -43.036630   12.258482    9.587160
 C  -42.310453   13.681057    7.770679
 C  -41.621616   14.753489    8.596484
 C  -40.511013   14.433762    9.378415
 C  -39.878076   15.436535   10.095938
 C  -40.302557   16.758775   10.057197
 N  -42.049178   12.145315   12.591027
 N  -41.201053   14.301926   13.129298
 N  -43.735767   16.525535   12.197095
 N  -43.271985   14.157558   12.253310
 C  -41.412847   17.052178    9.277004
Cl  -41.974977   18.702722    9.194475
Cl  -38.487377   15.031836   11.089642
 C  -42.080740   16.067545    8.558974
 N  -42.206269   12.371527    8.392976
 C  -43.377061    9.764458    9.926134
 C  -42.999885   11.273010   11.916271
 C  -42.202703   13.499462   12.628400
 C  -42.956924   15.486096   12.474325
 C  -41.657596   15.604235   13.020715
 C  -43.209067   17.722021   12.476119
 C  -41.940747   17.931211   13.025091
 C  -41.120911   16.840353   13.317158
 H  -41.592972   10.885912   10.344128
 H  -42.881043   13.162969   10.176942
 H  -44.117672   12.242068    9.354749
 H  -43.354080   13.996250    7.592302
 H  -41.822353   13.629179    6.789421
 H  -40.169321   13.405538    9.419602
 H  -39.800116   17.529624   10.627059
 H  -41.099987   11.805563   12.637487
 H  -40.258820   14.020801   13.347809
 H  -42.958381   16.328318    7.976526
 H  -42.452587   11.657074    7.715480
 H  -43.053274    8.876592   10.480558
 H  -44.465144    9.851457   10.033520
 H  -43.160567    9.587408    8.866784
 H  -43.989434   11.724886   12.029570
 H  -43.008677   10.319786   12.457310
 H  -43.836947   18.578668   12.242837
 H  -41.599925   18.942930   13.216728
 H  -40.126026   16.962408   13.734704
