59 
4zud_ligand_xtb.xyz
 C  -38.264854   63.651685   29.621875
 C  -38.915218   64.790026   29.190770
 O  -45.991754   64.815563   25.556182
 C  -40.299206   64.808633   29.069078
 O  -41.862880   62.834817   25.603631
 C  -40.954927   65.997272   28.412081
 O  -40.235137   63.974074   26.600859
 C  -43.979216   67.705955   31.607297
 C  -43.711411   66.656704   30.536805
 C  -43.639976   67.292087   29.140551
 C  -43.407047   66.268707   28.088951
 N  -44.369391   65.784679   27.335346
 C  -43.822769   64.845365   26.530819
 C  -44.740682   64.152431   25.557707
 C  -44.191697   64.214203   24.128213
 C  -44.952525   62.694862   26.002912
 C  -42.462838   64.746837   26.807140
 C  -41.419142   63.854285   26.331971
 N  -42.224593   65.686118   27.807053
 C  -41.030567   63.705850   29.489543
 C  -40.381200   62.555356   29.897657
 C  -38.991513   62.503838   29.921368
 C  -38.288589   61.236635   30.200583
 C  -37.571379   61.079897   31.379335
 C  -36.928257   59.889421   31.666375
 C  -36.997267   58.831982   30.772717
 C  -37.693473   58.975065   29.589356
 C  -38.333941   60.176966   29.285283
 C  -39.017150   60.258466   28.008207
 N  -39.357081   61.358093   27.286011
 N  -39.952537   60.924286   26.169712
 N  -39.970792   59.655067   26.208696
 N  -39.407013   59.204290   27.307892
 H  -37.186310   63.626847   29.675308
 H  -38.342688   65.657438   28.898449
 H  -46.016642   65.384677   26.338552
 H  -41.134520   62.187488   25.434737
 H  -40.277360   66.369451   27.635532
 H  -41.111992   66.794831   29.143302
 H  -44.035326   67.240838   32.588286
 H  -43.184336   68.448885   31.625190
 H  -44.919983   68.215698   31.414260
 H  -44.511721   65.914562   30.541934
 H  -42.775643   66.138580   30.760283
 H  -42.859211   68.056321   29.117503
 H  -44.593203   67.772920   28.918288
 H  -44.005229   65.249301   23.852159
 H  -43.277421   63.640374   24.039135
 H  -44.942373   63.807797   23.456657
 H  -45.356415   62.674801   27.012988
 H  -45.669340   62.227963   25.333653
 H  -44.018140   62.146065   25.972995
 H  -42.110268   63.719491   29.447200
 H  -40.951876   61.679853   30.172095
 H  -37.533665   61.902683   32.078480
 H  -36.377761   59.785385   32.589332
 H  -36.504142   57.898707   30.997311
 H  -37.753563   58.168361   28.875816
 H  -39.249847   62.355167   27.437582
