59 
4zud_ligand_aiqm1.xyz
 C  -38.370038   63.439276   29.105923
 C  -38.922483   64.634226   28.655259
 O  -46.035146   64.352990   25.852704
 C  -40.265859   64.930935   28.896516
 O  -41.580159   62.844859   25.806776
 C  -40.892891   66.151669   28.262914
 O  -40.251681   64.643616   25.871487
 C  -43.939015   67.895461   31.586588
 C  -43.656807   66.788916   30.578816
 C  -43.624904   67.328405   29.145476
 C  -43.411706   66.257802   28.124442
 N  -44.393583   65.613461   27.524397
 C  -43.814308   64.706065   26.671483
 C  -44.720643   63.809865   25.848836
 C  -44.305030   63.717210   24.384830
 C  -44.760201   62.422521   26.499703
 C  -42.439524   64.810656   26.764434
 C  -41.320802   64.128217   26.100699
 N  -42.201358   65.824838   27.690071
 C  -41.032937   64.037509   29.645828
 C  -40.475754   62.849988   30.118040
 C  -39.148789   62.523949   29.820479
 C  -38.594253   61.188767   30.168568
 C  -38.455805   60.788152   31.498813
 C  -37.873544   59.563120   31.819511
 C  -37.414321   58.722699   30.807228
 C  -37.563395   59.094503   29.476343
 C  -38.168300   60.309653   29.152311
 C  -38.365442   60.645998   27.731886
 N  -39.484035   61.169243   27.195754
 N  -39.290977   61.327668   25.875314
 N  -38.105509   60.904358   25.622184
 N  -37.501035   60.467849   26.752559
 H  -37.338824   63.202426   28.876070
 H  -38.323648   65.307931   28.054056
 H  -46.102236   64.932274   26.620087
 H  -40.775060   62.470265   25.397333
 H  -40.255120   66.529406   27.466857
 H  -41.044513   66.945932   28.991914
 H  -43.959767   67.505658   32.603392
 H  -43.173117   68.672315   31.538620
 H  -44.903564   68.363231   31.385883
 H  -44.427413   66.018066   30.646714
 H  -42.702862   66.304618   30.813434
 H  -42.857671   68.103497   29.051207
 H  -44.582306   67.797887   28.922395
 H  -44.222562   64.715118   23.951742
 H  -43.359585   63.187578   24.274728
 H  -45.082029   63.168727   23.852233
 H  -45.082795   62.507929   27.539473
 H  -45.475698   61.803055   25.959791
 H  -43.774212   61.955991   26.461535
 H  -42.082288   64.246011   29.822666
 H  -41.080348   62.154862   30.688099
 H  -38.795393   61.450753   32.284344
 H  -37.770409   59.273263   32.856537
 H  -36.944217   57.780946   31.051905
 H  -37.214142   58.448840   28.681696
 H  -40.354984   61.452977   27.620117
