46 
4zy1_ligand_ani-2x.xyz
 C   -5.174422   -0.250615   -0.920832
 C   -4.323823    0.563431    0.068027
 C   -5.182854    0.991961    1.263174
 C   -3.753687    1.802064   -0.625094
 C   -3.247776   -0.388513    0.594865
 O   -3.542754   -1.256334    1.418712
 N   -1.987336   -0.290281    0.106828
 C   -0.973928   -1.266836    0.498439
 C   -1.270709   -2.599793   -0.210922
 O   -0.997442   -2.870381   -1.374065
 N   -1.921140   -3.496358    0.582251
 O   -2.355107   -4.646707   -0.058895
 C    0.422797   -0.723368    0.296064
 C    1.207155   -0.994145   -0.824609
 C    2.464003   -0.422441   -0.950493
 C    0.929522    0.130430    1.277978
 C    2.185330    0.702314    1.151214
 C    2.975028    0.433571    0.028613
 C    4.308641    1.027783   -0.127351
 C    5.382753    0.528985   -0.841330
 C    4.806188    2.247353    0.397950
 N    6.060820    2.469888    0.037390
 N    6.394893    1.411757   -0.711023
 C    7.723726    1.326988   -1.270432
 H   -4.571658   -0.579743   -1.775427
 H   -6.007678    0.352725   -1.299663
 H   -5.582941   -1.138711   -0.428134
 H   -4.586871    1.554378    1.990688
 H   -5.598448    0.116312    1.767262
 H   -6.008451    1.629257    0.926431
 H   -3.066374    2.350328    0.029330
 H   -4.575912    2.477449   -0.884942
 H   -3.240331    1.554589   -1.561533
 H   -1.761839    0.358934   -0.631833
 H   -1.109405   -1.435061    1.570681
 H   -2.651655   -3.106237    1.178077
 H   -2.115444   -4.469704   -0.991534
 H    0.827283   -1.663066   -1.589917
 H    3.058937   -0.639053   -1.833923
 H    0.321794    0.353282    2.152425
 H    2.563062    1.354515    1.934681
 H    5.511875   -0.387483   -1.405046
 H    4.289593    2.981271    1.005028
 H    7.804977    0.398357   -1.837944
 H    7.904079    2.176776   -1.933140
 H    8.465529    1.330232   -0.468324
