52 
4zyq_ligand_aiqm1.xyz
 C   -5.472472    0.909449    2.952992
 C   -4.512349    0.868247    1.766670
 C   -5.312648    0.808928    0.460521
 C   -3.629257    2.121108    1.777493
 C   -3.630787   -0.380697    1.882170
 O   -3.746131   -1.192821    2.792020
 N   -2.704176   -0.557811    0.907673
 C   -1.746891   -1.657793    0.927392
 C   -2.428510   -2.909485    0.359138
 O   -2.399555   -3.268409   -0.812024
 N   -3.087982   -3.621705    1.290428
 O   -3.886198   -4.654390    0.815960
 C   -0.480927   -1.282894    0.204677
 C   -0.468382   -0.961325   -1.155569
 C    0.718963   -0.595104   -1.779916
 C    0.716287   -1.217243    0.919016
 C    1.903411   -0.841814    0.295366
 C    1.921745   -0.525733   -1.067439
 C    3.181134   -0.134910   -1.744663
 C    4.108725    0.689418   -1.103807
 C    3.464054   -0.579034   -3.043189
 C    4.648722   -0.211099   -3.678120
 C    5.566543    0.604625   -3.025932
 C    5.294437    1.060253   -1.734259
 C    6.263556    1.937508   -1.034775
 N    7.540159    1.940898   -1.138502
 N    5.697881    2.813979   -0.120703
 O    6.625155    3.740381    0.375044
 H   -6.109035    1.792878    2.877406
 H   -4.922360    0.950114    3.892783
 H   -6.102595    0.021041    2.969488
 H   -5.973840    1.674688    0.399989
 H   -5.929821   -0.088699    0.420420
 H   -4.670405    0.824014   -0.422724
 H   -4.260111    3.011328    1.761310
 H   -3.016870    2.158389    2.678595
 H   -2.967202    2.172758    0.910614
 H   -2.642492    0.098506    0.150373
 H   -1.514763   -1.860872    1.972134
 H   -3.465636   -3.162927    2.110144
 H   -3.702234   -4.613910   -0.140456
 H   -1.375400   -1.035085   -1.742493
 H    0.712084   -0.349949   -2.835818
 H    0.724177   -1.463051    1.974739
 H    2.822621   -0.807109    0.866629
 H    3.914227    1.044768   -0.101226
 H    2.761736   -1.230403   -3.547821
 H    4.857074   -0.564222   -4.679321
 H    6.482649    0.905002   -3.519555
 H    7.880984    1.208078   -1.749782
 H    4.899672    3.316619   -0.487707
 H    7.453032    3.427617   -0.045280
