34 
4zzx_ligand_xtb.xyz
 C    8.054720   14.550088   58.745722
 N    8.080851   13.750035   59.835833
 C    9.259603   15.417324   58.815151
 C    9.952587   15.061384   59.979387
 C    9.770038   16.427654   57.991741
 C    9.216169   13.971708   60.691317
 C    9.201343   16.976197   56.706481
 O    7.174889   14.501451   57.897336
 O    9.776552   17.877566   56.119617
 N    8.063837   16.434251   56.257174
 C    7.081529   12.754295   60.117581
 C   11.132057   15.667721   60.356384
 C   10.964885   17.029616   58.389729
 C    6.181147   13.141501   61.294015
 C   11.638884   16.666921   59.540377
 O    4.270847   12.031117   60.391151
 C    5.104445   12.086948   61.522854
 C    3.242394   11.085034   60.507655
 H    9.819041   13.060020   60.788170
 H    8.906471   14.282212   61.696215
 H    7.685229   16.802311   55.399955
 H    7.575567   15.683188   56.743939
 H    7.576852   11.798826   60.324940
 H    6.463915   12.653333   59.222341
 H   11.642112   15.369876   61.260228
 H   11.352097   17.808657   57.749406
 H    5.698821   14.093778   61.071551
 H    6.767809   13.245629   62.208674
 H   12.560550   17.163611   59.802854
 H    4.512322   12.344037   62.416222
 H    5.568787   11.101942   61.698948
 H    3.644954   10.071956   60.636690
 H    2.585904   11.311293   61.357664
 H    2.669891   11.133117   59.584098
