34 
4zzx_ligand_ani-2x.xyz
 C    8.020526   14.613489   58.877643
 N    8.123416   13.714928   59.891448
 C    9.294805   15.418397   58.870496
 C   10.061808   14.938481   59.935727
 C    9.788782   16.458684   58.058615
 C    9.336273   13.839481   60.664684
 C    9.137244   17.127516   56.859281
 O    7.027805   14.678928   58.153356
 O    9.706489   18.062560   56.308946
 N    7.952448   16.658241   56.423030
 C    7.064169   12.769779   60.180926
 C   11.310367   15.458015   60.222319
 C   11.045238   16.972324   58.366628
 C    5.904094   13.390525   60.964936
 C   11.803915   16.486497   59.427642
 O    4.373659   11.693319   60.273089
 C    4.881456   12.355741   61.406576
 C    3.430446   10.708524   60.604628
 H    9.903802   12.902018   60.669001
 H    9.125076   14.112370   61.707101
 H    7.542282   17.150586   55.645393
 H    7.427317   15.936562   56.909867
 H    7.504502   11.937798   60.746592
 H    6.698472   12.373125   59.232247
 H   11.897715   15.073135   61.052483
 H   11.412575   17.775685   57.737509
 H    5.412341   14.145562   60.341537
 H    6.293921   13.896912   61.857907
 H   12.780962   16.913556   59.632788
 H    4.063779   12.846724   61.961238
 H    5.351206   11.627399   62.092452
 H    3.868951    9.923433   61.241081
 H    2.564196   11.137672   61.133145
 H    3.087062   10.256634   59.671088
