34 
4zzz_ligand_dft.xyz
 C   -0.252027    0.012278   -0.642709
 N   -0.987019   -1.133449   -0.685234
 C    1.124768   -0.373369   -0.179874
 C    1.107591   -1.754170    0.031270
 C    2.301905    0.362490    0.052665
 C   -0.253017   -2.309098   -0.278313
 C    2.553378    1.858060   -0.104121
 O   -0.700418    1.117762   -0.938187
 O    3.663367    2.309453    0.149992
 N    1.531606    2.629920   -0.517172
 C   -2.384871   -1.172654   -1.066640
 C    2.223334   -2.449670    0.467519
 C    3.418343   -0.352710    0.491890
 C   -3.326653   -1.307597    0.133847
 C    3.389105   -1.728765    0.697131
 O   -3.781074    1.009977    0.283275
 C   -3.289612   -0.076321    1.024881
 C   -3.412302    2.253683    0.822272
 H   -0.226046   -3.052793   -1.086036
 H   -0.711015   -2.783589    0.599740
 H    1.730334    3.612710   -0.624254
 H    0.609572    2.256072   -0.745180
 H   -2.528475   -2.007046   -1.763051
 H   -2.599662   -0.239703   -1.591474
 H    2.187142   -3.523970    0.624730
 H    4.324164    0.215664    0.669774
 H   -3.073100   -2.195991    0.725945
 H   -4.348242   -1.447468   -0.236759
 H    4.284757   -2.238099    1.039194
 H   -2.255223    0.115742    1.354755
 H   -3.896637   -0.234532    1.931619
 H   -3.793415    2.381779    1.847740
 H   -2.319700    2.372309    0.826976
 H   -3.851205    3.023131    0.183571
