15 
5a1f_ligand_ani-2x.xyz
 C   83.485221   66.850396   14.334224
 C   84.618106   66.127555   13.574917
 C   86.327252   64.392594   13.788973
 C   87.719702   64.445384   14.413302
 O   82.802682   67.655153   13.536631
 O   83.268747   66.679063   15.506758
 O   84.764626   66.316352   12.376959
 O   88.485647   63.522785   14.336179
 N   85.393033   65.345642   14.363023
 O   88.050058   65.596027   15.018038
 H   85.966692   63.362732   13.856812
 H   86.427202   64.648126   12.729624
 H   83.209645   67.566993   12.649327
 H   85.002970   65.163259   15.282602
 H   87.289017   66.198438   14.972133
