17 
5a3w_ligand_ani-2x.xyz
 O   88.332488   63.313336   13.985076
 C   87.966210   64.566647   14.318855
 O   88.639320   65.229557   15.060303
 C   86.686000   65.067860   13.706680
 C   86.523170   66.440743   13.548043
 C   85.343382   66.916751   12.984199
 C   85.641631   64.224369   13.332529
 C   84.502469   64.800199   12.794850
 N   84.347596   66.112980   12.608190
 C   83.350880   63.920386   12.373129
 O   82.319897   64.589838   11.854941
 O   83.369723   62.722358   12.496945
 H   87.755845   62.973776   13.286860
 H   87.312240   67.114099   13.863287
 H   85.191123   67.982276   12.833410
 H   85.650788   63.147051   13.474959
 H   82.564237   65.536476   11.873144
