49 
5a5d_ligand_dft.xyz
 C    3.376304   -2.762913   -1.267459
 C    2.428882   -2.488336   -0.288449
 C    2.384238   -1.207511    0.279074
 C    3.241834   -0.200307   -0.170493
 C    4.203282   -0.503915   -1.140021
 C    4.267737   -1.776857   -1.683938
 C    3.203170    1.201516    0.354627
 N    1.953537    1.653817    0.772555
 O    4.194799    1.900954    0.426835
 C    1.832962    3.081404    1.079123
 C    0.451460    3.449059    1.616648
 C   -0.732986    3.011982    0.744559
 N   -2.094218    1.534058   -1.402391
 C   -3.229385    1.071986   -0.809989
 C   -3.218566   -0.362598   -0.343616
 O   -4.230443    1.759171   -0.661032
 C   -2.077024   -1.034437    0.105570
 C   -2.202233   -2.325170    0.638407
 C   -3.433756   -2.955072    0.693624
 C   -4.570315   -2.290553    0.234094
 C   -4.459311   -1.003574   -0.263550
 O   -0.852960   -0.446181    0.041804
 O   -1.043022   -2.896276    1.113214
 C   -0.623267    3.396378   -0.733726
 O    1.460439   -1.036463    1.287000
 C   -1.840295    2.955103   -1.555609
 O    1.588266   -3.469180    0.110309
 H    3.398706   -3.762090   -1.689665
 H    4.883555    0.281238   -1.450629
 H    5.008033   -2.007788   -2.442761
 H    1.177097    1.279986    0.234007
 H    2.068815    3.669779    0.182759
 H    2.602279    3.321765    1.815342
 H    0.439525    4.539294    1.737426
 H    0.326639    3.021588    2.618816
 H   -1.652832    3.442570    1.158679
 H   -0.861338    1.925883    0.822480
 H   -1.294484    0.917398   -1.400113
 H   -3.507700   -3.961312    1.100122
 H   -5.536743   -2.780640    0.281612
 H   -5.332332   -0.448564   -0.587668
 H   -0.190202   -0.933547    0.571268
 H   -1.254684   -3.721085    1.566243
 H    0.279726    2.951420   -1.177372
 H   -0.504888    4.482499   -0.837868
 H    1.576559   -0.144425    1.666973
 H   -2.745677    3.469368   -1.224775
 H   -1.686917    3.199467   -2.613192
 H    0.838609   -3.091230    0.598862
