21 
5a5o_ligand_xtb.xyz
 C  -23.652685   44.871933    9.777912
 C  -24.959193   44.991993   10.495595
 C  -25.854971   45.970384   10.239741
 C  -27.098744   46.069000   10.935959
 C  -28.040294   47.073580   10.686901
 C  -29.221502   47.116075   11.390740
 C  -29.491555   46.154436   12.362269
 C  -28.582444   45.154529   12.627729
 C  -27.380778   45.101940   11.919505
 N  -26.454741   44.123996   12.156044
 C  -25.241737   43.980846   11.516540
 O  -24.500896   43.062402   11.818781
 H  -23.811129   44.748199    8.707608
 H  -23.047356   45.764679    9.928110
 H  -23.114006   44.008398   10.160103
 H  -25.640120   46.714463    9.484257
 H  -27.823868   47.815399    9.932346
 H  -29.942857   47.894105   11.192963
 H  -30.420287   46.193181   12.911159
 H  -28.788728   44.407354   13.380426
 H  -26.658709   43.428108   12.864312
