21 
5a5o_ligand_ani-2x.xyz
 C  -23.637076   44.866689    9.772578
 C  -24.948273   44.993934   10.487042
 C  -25.852937   45.968396   10.240065
 C  -27.106789   46.070661   10.939553
 C  -28.055077   47.083398   10.687908
 C  -29.237114   47.127718   11.390776
 C  -29.508173   46.157319   12.370302
 C  -28.594706   45.154744   12.635261
 C  -27.391713   45.107893   11.921387
 N  -26.456382   44.118828   12.161380
 C  -25.237836   43.974253   11.519285
 O  -24.488758   43.054836   11.817596
 H  -23.778856   44.737052    8.693268
 H  -23.012885   45.756191    9.917499
 H  -23.095534   44.000069   10.155289
 H  -25.636693   46.718710    9.478516
 H  -27.835946   47.830772    9.927003
 H  -29.964201   47.911464   11.191793
 H  -30.442394   46.194593   12.923929
 H  -28.803491   44.402203   13.394003
 H  -26.641766   43.415278   12.864563
