31 
5a6i_ligand_xtb.xyz
 O    1.234877   21.686598   82.600005
 C    0.788773   21.426766   83.698144
 C    0.490265   20.014955   84.084175
 C    1.273818   18.995192   83.533108
 C    1.023038   17.669270   83.822786
 O    1.794721   16.695185   83.304448
 C   -0.572418   19.691214   84.903245
 C   -0.850867   18.351340   85.193971
 N   -1.959566   18.065573   86.040015
 O   -2.205669   16.885166   86.284949
 O   -2.606627   18.984337   86.484752
 C   -0.057057   17.320921   84.667666
 O   -0.240115   16.011386   84.896443
 C    0.504069   22.470744   84.704668
 C    0.167738   23.750629   84.261143
 C   -0.095275   24.757052   85.165238
 C   -0.007058   24.524487   86.535706
 C   -0.294042   25.627356   87.504767
 C    0.358816   23.256855   86.973475
 C    0.608547   22.237667   86.074753
 H    2.087589   19.247164   82.871696
 H    1.459433   15.837744   83.607654
 H   -1.221441   20.448139   85.315324
 H   -1.027597   15.905201   85.481914
 H    0.106900   23.929086   83.198066
 H   -0.368877   25.740480   84.811359
 H    0.371920   26.470445   87.325636
 H   -1.316339   25.981923   87.379237
 H   -0.165396   25.292260   88.530475
 H    0.449427   23.065264   88.032883
 H    0.914914   21.267301   86.436801
