37 
5ab9_ligand_aiqm1.xyz
 C   93.707466   92.110936  -41.408383
 N   91.998689   94.997691  -40.914186
 C   92.215670   92.130129  -41.746978
 N   90.633514  100.164086  -44.750832
 C   91.863862   93.258752  -42.679855
 C   91.620820   93.052409  -44.027240
 C   91.321229   94.119365  -44.901493
 C   91.260957   95.421140  -44.441956
 C   91.499365   95.666148  -43.072469
 C   91.524874   96.818487  -42.241776
 C   91.829182   96.331482  -40.968528
 C   91.798765   94.579375  -42.201527
 C   91.282790   98.223172  -42.618235
 C   92.321768   98.709901  -43.654327
 C   92.043205  100.112693  -44.162147
 C   89.594751   99.819143  -43.683845
 C   89.852050   98.413778  -43.171959
 H   94.310509   91.974903  -42.311252
 H   93.986981   93.058698  -40.950569
 H   93.948065   91.301092  -40.711277
 H   91.645368   92.245321  -40.823432
 H   91.922282   91.174922  -42.198561
 H   90.569344   99.467055  -45.507120
 H   90.444113  101.081815  -45.157158
 H   91.661675   92.043877  -44.428831
 H   91.138481   93.909369  -45.952656
 H   91.029756   96.228004  -45.146545
 H   91.929543   96.940437  -40.070444
 H   91.378291   98.871456  -41.731362
 H   92.365593   98.008823  -44.488483
 H   93.305487   98.695095  -43.194709
 H   92.062594  100.825931  -43.337773
 H   92.741187  100.439029  -44.930824
 H   88.606773   99.943442  -44.123155
 H   89.720873  100.545123  -42.880275
 H   89.140466   98.195601  -42.381264
 H   89.662862   97.684820  -43.960676
