24 
5abp_ligand_ani-2x.xyz
 C   -1.179836    0.723807    0.840237
 C   -1.581668   -0.538035    0.087071
 C   -0.375817   -1.457176   -0.079576
 C    0.764600   -0.709791   -0.754004
 C    1.063734    0.562483    0.030543
 C    2.084943    1.460096   -0.645189
 O   -0.841882    0.325640    2.152892
 O   -2.638226   -1.229281    0.724513
 O   -0.726286   -2.550338   -0.906724
 O    0.404407   -0.370216   -2.072938
 O   -0.113158    1.369492    0.195435
 O    2.364391    2.591260    0.146824
 H   -2.013192    1.437571    0.866589
 H   -1.944935   -0.260467   -0.905605
 H   -0.044366   -1.808598    0.911205
 H    1.665637   -1.349005   -0.748281
 H    1.439928    0.282378    1.027118
 H    1.714238    1.733324   -1.643288
 H    3.028599    0.917405   -0.769277
 H   -0.554473    1.113052    2.634644
 H   -2.410529   -1.271577    1.665100
 H   -1.614041   -2.819110   -0.624253
 H   -0.002851   -1.168145   -2.443779
 H    1.510586    3.015329    0.310944
