31 
5afl_ligand_ani-2x.xyz
 C   -0.856976   16.724494   34.968690
 C   -1.174143   15.721257   34.050281
 N   -0.174554   14.765302   33.773166
 C   -0.160785   13.836336   32.746247
 N    0.970582   13.071540   32.678636
 C    2.056894   13.000329   33.648470
 C    2.831634   11.747958   33.221829
 C    2.554486   11.640879   31.719474
 C    1.102886   12.101829   31.595870
 O   -1.070184   13.686030   31.940035
 C   -2.446009   15.687231   33.473829
 C   -3.368386   16.661884   33.829946
 C   -3.050103   17.662711   34.742377
 C   -1.782253   17.703463   35.323055
 C   -1.412573   18.777634   36.314971
 H    0.134737   16.746817   35.419406
 H    0.679112   14.892052   34.294997
 H    1.681779   12.911643   34.675527
 H    2.691115   13.894946   33.591207
 H    2.434264   10.871927   33.746277
 H    3.896205   11.824390   33.457951
 H    2.708205   10.631821   31.326716
 H    3.208317   12.321271   31.161531
 H    0.871694   12.574485   30.637879
 H    0.390325   11.278667   31.733782
 H   -2.690680   14.912541   32.760325
 H   -4.358504   16.637913   33.380011
 H   -3.788717   18.416347   35.005732
 H   -1.127568   18.342259   37.279527
 H   -0.562007   19.369278   35.957616
 H   -2.246793   19.462266   36.489842
