19 
5ai0_ligand_ani-2x.xyz
 C   13.350428   14.560040   27.448200
 C   12.312000   14.538551   28.375763
 C   13.683061   13.400515   26.752375
 C   11.606703   13.363904   28.610918
 C   12.986601   12.221796   26.991110
 C   11.948276   12.196417   27.927899
 C   11.207556   10.950939   28.187739
 C   11.680988    9.595619   28.137089
 N    9.940363   10.909849   28.495463
 N   10.685770    8.794495   28.383822
 N   12.958855    9.164646   27.830463
 O    9.610828    9.609838   28.610541
 H   13.897099   15.481516   27.265530
 H   12.047460   15.444378   28.915555
 H   14.489255   13.413651   26.024108
 H   10.787579   13.341705   29.323815
 H   13.238306   11.311613   26.451147
 H   13.682949    9.708622   28.282096
 H   13.087422    8.172505   27.987867
