19 
5aip_ligand_ani-2x.xyz
 C   33.183467   21.557480   15.421423
 O   33.790419   22.052493   14.511294
 O   33.824797   21.115639   16.520356
 C   31.656774   21.438099   15.434555
 C   31.125583   20.265396   16.217275
 C   31.251619   18.966605   15.715183
 C   30.815578   17.869833   16.443487
 C   30.242383   18.057954   17.701777
 C   30.108763   19.345567   18.219646
 C   30.549304   20.436212   17.474337
 O   29.833322   16.948095   18.375694
 H   33.190134   20.715343   17.135066
 H   31.344227   21.404251   14.387727
 H   31.266650   22.378003   15.849791
 H   31.712018   18.820643   14.739933
 H   30.912716   16.859529   16.057556
 H   29.667144   19.498623   19.202800
 H   30.441115   21.439773   17.882045
 H   29.458686   17.215363   19.224455
