38 
5aiv_ligand_aiqm1.xyz
 C  -13.163558   36.428258  -34.473817
 O  -12.195658   36.725764  -33.493727
 C  -10.911770   36.858770  -34.060344
 C   -9.938404   37.180333  -32.945052
 C   -8.524106   37.444631  -33.445757
 N   -7.928147   36.308068  -34.130801
 C   -7.925412   36.220828  -35.470998
 O   -8.373076   37.032919  -36.253812
 C   -7.270755   34.952523  -35.939019
 N   -6.781828   34.006639  -35.197494
 C   -6.318759   33.106884  -36.137293
 N   -6.519890   33.496120  -37.376988
 O   -7.156360   34.729602  -37.241309
 C   -5.667917   31.844193  -35.765065
 C   -5.515141   31.537021  -34.419980
 C   -4.901053   30.344549  -34.009415
 C   -4.423237   29.427525  -34.930247
 C   -4.577174   29.737222  -36.283276
 C   -5.191449   30.929976  -36.730942
 C   -5.167952   30.896504  -38.166113
 C   -4.561073   29.725645  -38.524478
 N   -4.203358   29.023234  -37.394822
 H  -14.120848   36.334306  -33.967981
 H  -13.225052   37.226221  -35.220904
 H  -12.929787   35.487528  -34.983364
 H  -10.629229   35.925483  -34.568683
 H  -10.905561   37.653623  -34.815005
 H  -10.292199   38.069354  -32.422739
 H   -9.940932   36.358266  -32.223567
 H   -8.522818   38.270941  -34.155443
 H   -7.881148   37.713809  -32.606875
 H   -7.555643   35.522700  -33.618672
 H   -5.881641   32.239678  -33.683928
 H   -4.800063   30.139562  -32.952398
 H   -3.949275   28.507151  -34.610949
 H   -3.743065   28.132939  -37.388059
 H   -5.553445   31.648101  -38.828856
 H   -4.348216   29.322131  -39.500830
