38 
5aiv_ligand_xtb.xyz
 C  -13.039103   36.083652  -34.311588
 O  -12.018688   36.431000  -33.412858
 C  -10.808991   36.762981  -34.055577
 C   -9.784176   37.134301  -32.988559
 C   -8.444415   37.542773  -33.600970
 N   -7.815212   36.452052  -34.306627
 C   -7.779193   36.380707  -35.651260
 O   -8.174118   37.235883  -36.412292
 C   -7.164353   35.099675  -36.100096
 N   -6.789380   34.130498  -35.316346
 C   -6.306817   33.192067  -36.189909
 N   -6.396634   33.594141  -37.436926
 O   -6.951738   34.827461  -37.384660
 C   -5.770023   31.922408  -35.762035
 C   -5.731566   31.606028  -34.410789
 C   -5.220476   30.391948  -33.960399
 C   -4.728825   29.449357  -34.841826
 C   -4.761465   29.753467  -36.195810
 C   -5.276749   30.982162  -36.681948
 C   -5.152497   30.947982  -38.095011
 C   -4.588767   29.749159  -38.411895
 N   -4.351670   29.027295  -37.275424
 H  -13.916513   35.850745  -33.711878
 H  -13.269414   36.912674  -34.992330
 H  -12.761330   35.207165  -34.910707
 H  -10.452400   35.907187  -34.650948
 H  -10.961601   37.608120  -34.744390
 H  -10.179465   37.962732  -32.400767
 H   -9.648968   36.282523  -32.319808
 H   -8.591416   38.342471  -34.330749
 H   -7.769266   37.891786  -32.814544
 H   -7.511285   35.641359  -33.786670
 H   -6.109457   32.325587  -33.701397
 H   -5.209784   30.186803  -32.900598
 H   -4.332385   28.507889  -34.490932
 H   -3.941460   28.109763  -37.240130
 H   -5.450827   31.726134  -38.765586
 H   -4.334574   29.349067  -39.374765
