38 
5aiv_ligand_ani-2x.xyz
 C  -13.200899   36.539396  -34.543743
 O  -12.257946   36.827466  -33.546154
 C  -10.939833   36.808133  -34.041857
 C   -9.997861   37.139088  -32.893720
 C   -8.555266   37.372169  -33.347795
 N   -7.974336   36.240638  -34.047217
 C   -7.903600   36.194919  -35.395248
 O   -8.325547   37.055732  -36.149166
 C   -7.245673   34.936627  -35.889581
 N   -6.751953   33.974441  -35.170360
 C   -6.293621   33.105616  -36.132217
 N   -6.501657   33.522071  -37.356293
 O   -7.133480   34.736157  -37.196631
 C   -5.640140   31.843047  -35.783397
 C   -5.481646   31.519713  -34.442014
 C   -4.863167   30.324001  -34.052336
 C   -4.387625   29.421493  -34.990822
 C   -4.548878   29.750210  -36.338380
 C   -5.167492   30.946696  -36.766178
 C   -5.148459   30.929692  -38.207875
 C   -4.543200   29.769885  -38.586737
 N   -4.179796   29.055179  -37.466337
 H  -14.190963   36.585108  -34.083620
 H  -13.156047   37.270267  -35.366377
 H  -13.050618   35.533572  -34.965970
 H  -10.704368   35.818578  -34.467332
 H  -10.821409   37.542002  -34.859840
 H  -10.363795   38.047298  -32.398808
 H  -10.038186   36.333823  -32.149417
 H   -8.516687   38.218247  -34.040059
 H   -7.926153   37.609669  -32.484400
 H   -7.574802   35.475660  -33.522067
 H   -5.848780   32.216132  -33.693572
 H   -4.755422   30.102208  -32.993984
 H   -3.907918   28.494048  -34.687384
 H   -3.715477   28.161498  -37.468344
 H   -5.548937   31.709091  -38.839851
 H   -4.333362   29.379433  -39.573916
