29 
5ak5_ligand_dft.xyz
 N    0.390961   -0.354859    0.514832
 C    1.646121   -0.039799    0.587181
 C    2.169637    1.282836    0.178405
 C    3.669134   -1.401792   -1.264968
 C    3.022161   -2.058341   -0.046150
 C    2.638423   -1.062361    1.062960
 C   -0.539977    0.548339    0.046319
 C   -0.144698    1.776459   -0.382794
 C   -1.946580    0.097204    0.008344
 C   -2.256322   -1.263800   -0.041288
 C   -3.018812    0.995448    0.032353
 N   -4.300421    0.639572   -0.029307
 C   -4.570730   -0.665368   -0.098949
 C   -3.587525   -1.650621   -0.096185
 O    3.337518    1.635924    0.227424
 N    1.175083    2.120022   -0.301856
 H    2.963644   -0.744661   -1.786178
 H    4.530341   -0.791886   -0.974723
 H    4.005118   -2.157959   -1.981677
 H    3.709691   -2.796032    0.383946
 H    2.120965   -2.604755   -0.350604
 H    2.189151   -1.608479    1.898018
 H    3.533910   -0.546620    1.421661
 H   -0.810827    2.514706   -0.811783
 H   -1.453586   -1.993560   -0.033059
 H   -2.836883    2.065102    0.128582
 H   -5.623620   -0.933433   -0.150195
 H   -3.862488   -2.699394   -0.139549
 H    1.490078    3.027214   -0.620887
