29 
5ak5_ligand_aiqm1.xyz
 N  -16.172411   -9.441503    8.824842
 C  -15.254875   -9.461099    7.907814
 C  -13.818586   -9.674326    8.203463
 C  -14.989442   -6.748206    6.579307
 C  -16.098616   -7.749125    6.271540
 C  -15.651442   -9.200488    6.478828
 C  -15.842287   -9.654218   10.149260
 C  -14.543941   -9.844778   10.507024
 C  -16.946336   -9.636103   11.123745
 C  -18.201152   -9.142080   10.756418
 C  -16.795926  -10.103594   12.432339
 N  -17.769198  -10.090452   13.346882
 C  -18.955952   -9.602004   12.976320
 C  -19.220611   -9.123171   11.695487
 O  -12.919913   -9.689391    7.377050
 N  -13.568490   -9.851408    9.546184
 H  -14.739037   -6.744967    7.644099
 H  -14.082502   -6.997389    6.028246
 H  -15.287745   -5.734706    6.306375
 H  -16.420989   -7.637604    5.235374
 H  -16.969785   -7.553516    6.903126
 H  -16.473162   -9.872571    6.222975
 H  -14.807943   -9.422118    5.827270
 H  -14.219499   -9.981280   11.526825
 H  -18.347977   -8.789680    9.744612
 H  -15.854590  -10.525757   12.767282
 H  -19.725703   -9.600607   13.738146
 H  -20.204544   -8.747918   11.447206
 H  -12.602244   -9.982442    9.799261
