29 
5ak5_ligand_xtb.xyz
 N  -16.153632   -9.458692    8.855009
 C  -15.255613   -9.454441    7.930344
 C  -13.825558   -9.645083    8.199866
 C  -15.007050   -6.770603    6.580613
 C  -16.126410   -7.766171    6.305714
 C  -15.665975   -9.215417    6.512346
 C  -15.816156   -9.640780   10.163433
 C  -14.503662   -9.795187   10.515769
 C  -16.923354   -9.634171   11.120077
 C  -18.172048   -9.143636   10.732489
 C  -16.808284  -10.115090   12.426345
 N  -17.795755  -10.104268   13.299683
 C  -18.968064   -9.622257   12.922253
 C  -19.210212   -9.138038   11.644664
 O  -12.928129   -9.673600    7.379378
 N  -13.551993   -9.795819    9.551000
 H  -14.716443   -6.798959    7.629079
 H  -14.131698   -7.006868    5.980139
 H  -15.328868   -5.759217    6.342755
 H  -16.468869   -7.654643    5.275289
 H  -16.969576   -7.566542    6.969436
 H  -16.489590   -9.886863    6.263592
 H  -14.813127   -9.429245    5.866706
 H  -14.168039   -9.901971   11.534968
 H  -18.300583   -8.778394    9.725378
 H  -15.883812  -10.543298   12.791029
 H  -19.741892   -9.632697   13.678288
 H  -20.185630   -8.764460   11.373703
 H  -12.574878   -9.906090    9.797955
