43 
5akl_ligand_xtb.xyz
 C   15.727871   -9.546243   -8.764494
 C   20.540919   -7.836299  -13.469852
 C   17.002916  -10.086388   -8.744479
 C   15.057917   -9.428078   -9.968327
 C   19.212417   -7.492035  -13.286682
 C   20.938580   -9.149595  -13.293630
 C   17.595195  -10.504702   -9.920671
 C   15.654274   -9.846207  -11.146608
 C   18.287258   -8.456334  -12.932608
 C   20.010762  -10.113622  -12.939812
 C   16.929624  -10.393935  -11.137541
 C   18.676272   -9.778388  -12.759567
 C   16.687467  -11.213264  -16.950818
 C   14.162636  -12.469124  -19.190115
 C   14.596658  -11.284206  -19.834127
 C   14.878597  -12.591206  -18.039141
 C   15.563748  -10.734698  -19.053537
 C   16.731848  -11.119641  -13.579709
 C   17.506623  -11.778796  -14.722456
 C   17.655396  -10.833545  -12.389220
 N   15.743527  -11.526886  -17.945458
 N   16.665218  -12.027866  -15.870706
 O   17.459891  -10.294665  -17.091731
 H   15.260875   -9.219027   -7.847412
 H   21.263283   -7.083381  -13.748197
 H   17.536179  -10.181857   -7.809938
 H   14.063632   -9.005920   -9.994389
 H   18.896009   -6.468020  -13.420571
 H   21.973439   -9.426162  -13.433658
 H   18.592327  -10.921752   -9.900929
 H   15.109566   -9.740962  -12.072360
 H   17.254160   -8.178939  -12.781655
 H   20.328411  -11.138675  -12.805909
 H   13.409962  -13.146398  -19.543201
 H   14.230132  -10.896855  -20.763576
 H   14.839906  -13.373926  -17.307457
 H   16.149948   -9.846077  -19.171364
 H   15.920011  -11.778853  -13.259532
 H   16.301775  -10.189324  -13.953584
 H   17.937887  -12.729114  -14.391894
 H   18.309128  -11.117352  -15.055963
 H   18.192619  -11.760365  -12.153213
 H   15.909836  -12.682318  -15.752311
