41 
5aku_ligand_aiqm1.xyz
 C   -4.647975   -0.587030    1.352502
 N    2.084460   -1.389985   -1.003478
 O    3.801280   -2.755730   -1.587691
 C   -4.159273    0.227388    0.150183
 N    2.375135    0.408117    0.484636
 C   -4.866436   -0.308755   -1.105715
 C   -4.565728    1.693729    0.372985
 C   -2.642751    0.136998   -0.036437
 C   -2.030082    0.825727   -1.093089
 C   -0.655478    0.766793   -1.297600
 C    0.156882    0.015064   -0.451723
 C   -0.436833   -0.673459    0.604954
 C   -1.814088   -0.613220    0.808059
 C    1.646172   -0.037204   -0.690276
 C    3.412256   -1.746316   -1.026677
 C    4.303672   -0.824597   -0.277768
 C    5.681688   -1.040067   -0.279163
 C    6.524801   -0.205427    0.440813
 C    5.979332    0.848750    1.175762
 C    4.608031    1.076179    1.186321
 C    3.758841    0.241610    0.454818
 H   -4.207128   -0.232898    2.287072
 H   -4.420334   -1.649288    1.240448
 H   -5.731745   -0.485329    1.435555
 H    1.498828   -1.933710   -1.617682
 H    2.072213    1.315888    0.803236
 H   -5.949985   -0.213397   -0.992596
 H   -4.574240    0.239368   -2.003726
 H   -4.629452   -1.363320   -1.259893
 H   -4.259917    2.332748   -0.457955
 H   -5.652375    1.768350    0.470564
 H   -4.112160    2.084445    1.286302
 H   -2.632777    1.418573   -1.771504
 H   -0.210307    1.308127   -2.124547
 H    0.188480   -1.258253    1.268076
 H   -2.237978   -1.162116    1.637077
 H    1.866883    0.625433   -1.555107
 H    6.064475   -1.875228   -0.849391
 H    7.592352   -0.374749    0.439498
 H    6.625732    1.503377    1.746777
 H    4.195629    1.893512    1.766182
