40 
5al1_ligand_aiqm1.xyz
 C   -4.531433    1.453980   -0.616704
 C   -4.046770    0.087786   -0.103593
 C   -4.659656   -1.025104   -0.969918
 C   -4.561030   -0.089663    1.328737
 C   -2.519780    0.020334   -0.186006
 C   -1.703962   -0.181509    0.934877
 C   -0.316463   -0.238459    0.820297
 C   -1.883442    0.164827   -1.427265
 C   -0.498653    0.108416   -1.544042
 C    0.300632   -0.095750   -0.421489
 C    1.800878   -0.162017   -0.571737
 N    2.298863   -1.493473   -0.241052
 C    3.623726   -1.764067   -0.012278
 O    4.071907   -2.896786   -0.031265
 C    4.439786   -0.567412    0.303350
 C    5.808570   -0.663871    0.511730
 C    6.522995    0.482472    0.837963
 C    5.824232    1.680698    0.944500
 N    4.503952    1.804298    0.748915
 C    3.832835    0.694797    0.436236
 N    2.464058    0.799355    0.296506
 H   -4.145677    2.259901    0.010894
 H   -4.211633    1.641078   -1.643822
 H   -5.623977    1.494060   -0.593569
 H   -4.345352   -0.950146   -2.012918
 H   -4.366639   -2.008609   -0.597122
 H   -5.750867   -0.959245   -0.943361
 H   -5.651171   -0.033084    1.325812
 H   -4.278649   -1.060228    1.742448
 H   -4.188274    0.693777    1.992244
 H   -2.145806   -0.296739    1.914406
 H    0.297613   -0.392791    1.698963
 H   -2.475157    0.324426   -2.321163
 H   -0.035098    0.223453   -2.517079
 H    2.036637    0.058741   -1.634359
 H    1.758881   -2.282096   -0.560018
 H    6.281281   -1.631687    0.420513
 H    7.589122    0.452191    1.011519
 H    6.342337    2.597463    1.198033
 H    2.141183    1.750780    0.200817
