37 
5al2_ligand_ani-2x.xyz
 C    4.940041    0.124213    1.325551
 C    4.256607    0.734921    0.095632
 C    5.041629    0.402057   -1.179389
 C    2.805176    0.303903   -0.011034
 C    1.774921    1.247645    0.052133
 C    0.443557    0.867605   -0.044290
 C    2.458190   -1.039327   -0.174290
 C    1.125035   -1.422026   -0.270878
 C    0.110331   -0.473595   -0.206859
 C   -1.342765   -0.889529   -0.307638
 N   -1.986459   -0.216686   -1.421664
 C   -3.313245    0.144222   -1.500174
 O   -3.808421    0.499996   -2.556256
 C   -4.061267    0.079564   -0.226479
 C   -5.413486    0.385590   -0.152785
 C   -6.055097    0.307128    1.073835
 C   -5.297859   -0.075353    2.180420
 N   -3.998398   -0.367247    2.137464
 C   -3.394747   -0.291795    0.949329
 N   -2.049551   -0.562450    0.917314
 H    4.937085   -0.970856    1.274385
 H    5.983633    0.453406    1.388259
 H    4.431838    0.416919    2.250320
 H    4.264118    1.825546    0.216902
 H    6.083926    0.727734   -1.084865
 H    4.606449    0.894492   -2.055331
 H    5.044325   -0.677605   -1.369456
 H    2.028948    2.298801    0.178686
 H   -0.351294    1.606972    0.004069
 H    3.230244   -1.804951   -0.228185
 H    0.872184   -2.472667   -0.397886
 H   -1.371395   -1.979782   -0.470406
 H   -1.508352   -0.210040   -2.312682
 H   -5.927609    0.678668   -1.064083
 H   -7.111120    0.534982    1.176758
 H   -5.762362   -0.149204    3.161823
 H   -1.684809   -0.931353    1.783451
