33 
5ald_ligand_ani-2x.xyz
 C  -16.207176   -9.536022   12.080985
 C  -14.876856   -9.755310   11.739466
 C  -14.518312   -9.593850   10.409073
 C  -15.455345   -9.221608    9.438819
 C  -16.771030   -9.007860    9.795962
 C  -17.168087   -9.166437   11.131701
 C  -18.609083   -8.915423   11.535270
 C  -19.247145  -10.127329   12.236904
 C  -20.711755   -9.860699   12.591040
 C  -20.852919   -8.606600   13.456848
 C  -20.214242   -7.392866   12.777357
 C  -18.751497   -7.660735   12.417224
 C  -14.754910   -9.130976    8.110801
 C  -13.303219   -9.497313    8.441549
 O  -12.359196   -9.561476    7.688803
 N  -13.267387   -9.749792    9.803246
 H  -16.496789   -9.657462   13.124536
 H  -14.147403  -10.043480   12.491866
 H  -17.504289   -8.718126    9.043955
 H  -19.186181   -8.733433   10.615069
 H  -18.686199  -10.347927   13.156327
 H  -19.160256  -11.014396   11.598254
 H  -21.142939  -10.730748   13.100646
 H  -21.285868   -9.725311   11.662503
 H  -20.356816   -8.779953   14.423034
 H  -21.908841   -8.410392   13.679677
 H  -20.290474   -6.507464   13.419968
 H  -20.771121   -7.160610   11.857419
 H  -18.316620   -6.795775   11.902905
 H  -18.164504   -7.806522   13.336160
 H  -14.781276   -8.131565    7.667407
 H  -15.140050   -9.829068    7.362167
 H  -12.414115  -10.013375   10.272857
