43 
5alo_ligand_ani-2x.xyz
 C    2.135135    0.446901   -2.319713
 C    1.798133   -0.878043   -1.629105
 C    0.315927   -1.094207   -1.371100
 C   -0.603994   -0.323823   -0.682686
 C   -1.932202   -0.748141   -0.578498
 C   -2.304360   -1.959853   -1.186316
 C   -1.400902   -2.729847   -1.896371
 C   -0.090952   -2.275587   -1.990092
 N    0.984422   -2.835136   -2.675642
 C    2.112970   -2.048306   -2.587099
 O    3.169704   -2.259157   -3.141383
 C   -2.902572    0.065627    0.157609
 C   -4.317948   -0.041651    0.205795
 N   -4.861395    0.884136    0.979034
 N   -3.828971    1.596976    1.442006
 C   -2.643661    1.150319    0.977679
 C   -4.073501    2.705427    2.334890
 C    2.698159   -1.105370   -0.381388
 C    2.549187   -0.068685    0.703843
 C    1.590913   -0.217984    1.710442
 C    1.465613    0.721593    2.729218
 C    2.293832    1.839491    2.752913
 C    3.246760    2.008081    1.753761
 C    3.370404    1.061472    0.741290
 H    1.936427    1.296114   -1.657246
 H    1.538751    0.578650   -3.227069
 H    3.194361    0.454137   -2.597720
 H   -0.288778    0.600602   -0.205475
 H   -3.330652   -2.308143   -1.099531
 H   -1.710700   -3.658113   -2.369283
 H    0.941243   -3.641203   -3.279453
 H   -4.967169   -0.745028   -0.302244
 H   -1.724439    1.635047    1.283179
 H   -3.116285    3.157051    2.601410
 H   -4.703025    3.449686    1.841254
 H   -4.573843    2.351243    3.239327
 H    2.465524   -2.098346    0.018728
 H    3.733014   -1.138635   -0.738923
 H    0.909980   -1.066814    1.672796
 H    0.719362    0.578275    3.506806
 H    2.195764    2.574936    3.546393
 H    3.897304    2.878376    1.761357
 H    4.112357    1.208030   -0.043793
