65 
5alu_ligand_aiqm1.xyz
 C    1.400201   -2.641340    0.066624
 C    0.789559   -1.492267   -0.436006
 C    1.546915   -0.310483   -0.377442
 N    2.729423   -0.289225    0.246944
 C    3.180632   -1.442171    0.753026
 N    2.587948   -2.645432    0.658799
 N    4.351002   -1.405692    1.448030
 C    1.136109    0.988411   -1.043449
 C    0.643909    2.024021    0.015688
 C    1.460673    3.298925   -0.240910
 C    2.790550    2.765896   -0.769894
 C    2.340708    1.672149   -1.739440
 C   -0.591909   -1.627983   -0.999432
 O   -0.921608   -2.584374   -1.686079
 N   -1.447053   -0.641222   -0.647441
 C   -2.810751   -0.565465   -1.168656
 C   -3.386740    0.841553   -0.960326
 C   -3.576112    1.139460    0.535743
 C   -4.522075    0.099925    1.157110
 C   -3.924910   -1.304530    0.975368
 C   -3.744741   -1.605246   -0.519225
 C   -5.102268   -1.517801   -1.223514
 C   -5.695280   -0.116519   -1.051837
 C   -5.876866    0.167721    0.441401
 C   -4.748985    0.916037   -1.657190
 O   -6.930116    0.012636   -1.753558
 C    5.255154   -0.265388    1.354926
 C    6.465180   -0.482355    2.257449
 C    7.398968   -1.325357    1.378778
 O    6.971465   -1.137254    0.025495
 C    5.928063   -0.168455   -0.008785
 H    0.890993   -3.591699   -0.028692
 H    4.784483   -2.309371    1.542231
 H    0.354820    0.782797   -1.778906
 H   -0.435170    2.196464   -0.040332
 H    0.876960    1.650711    1.018039
 H    1.558652    3.913280    0.654498
 H    0.976615    3.908720   -1.010357
 H    3.354442    2.311106    0.048893
 H    3.408176    3.527679   -1.244778
 H    2.005122    2.126775   -2.673909
 H    3.135840    0.963202   -1.975214
 H   -1.122388    0.077405   -0.026517
 H   -2.760382   -0.782934   -2.239731
 H   -2.707364    1.574360   -1.407425
 H   -2.615293    1.130025    1.065053
 H   -3.995660    2.141989    0.655594
 H   -4.658728    0.315619    2.220424
 H   -4.594134   -2.047409    1.419308
 H   -2.963145   -1.378234    1.495860
 H   -3.315390   -2.597003   -0.660496
 H   -5.798283   -2.254649   -0.803519
 H   -4.997986   -1.735437   -2.290640
 H   -6.569670   -0.570491    0.864967
 H   -6.330572    1.156444    0.561965
 H   -4.649915    0.718665   -2.729083
 H   -5.187169    1.910836   -1.536340
 H   -7.535968   -0.647542   -1.408861
 H    4.699232    0.633946    1.600577
 H    6.201256   -0.974241    3.193031
 H    6.922444    0.480815    2.483299
 H    8.441256   -1.014674    1.472842
 H    7.344164   -2.392058    1.606976
 H    6.329489    0.840762   -0.162331
 H    5.256125   -0.424433   -0.828221
