65 
5alu_ligand_xtb.xyz
 C    1.375670   -2.663678   -0.538204
 C    0.772859   -1.455159   -0.888030
 C    1.551422   -0.305830   -0.702491
 N    2.754173   -0.381392   -0.155517
 C    3.216011   -1.583042    0.190479
 N    2.572726   -2.743613   -0.000969
 N    4.416938   -1.659034    0.793150
 C    1.096479    1.063301   -1.127837
 C    0.694870    1.912768    0.103756
 C    1.422314    3.246946   -0.061044
 C    2.713944    2.850216   -0.764306
 C    2.234520    1.849826   -1.811566
 C   -0.594672   -1.461112   -1.478017
 O   -0.888013   -2.097672   -2.469745
 N   -1.483840   -0.703578   -0.790166
 C   -2.872834   -0.599579   -1.177952
 C   -3.414694    0.820879   -0.986691
 C   -3.490143    1.183772    0.497432
 C   -4.396288    0.189829    1.222195
 C   -3.831569   -1.222183    1.066742
 C   -3.771406   -1.586310   -0.416165
 C   -5.174442   -1.525390   -1.017265
 C   -5.736803   -0.105637   -0.869956
 C   -5.799741    0.249764    0.621298
 C   -4.817090    0.884717   -1.588482
 O   -7.012231    0.007161   -1.475920
 C    5.320463   -0.548854    0.932906
 C    5.857639   -0.441258    2.375238
 C    7.353362   -0.783088    2.238722
 O    7.505051   -1.412219    0.985115
 C    6.611526   -0.762553    0.114138
 H    0.859422   -3.601122   -0.699149
 H    4.777912   -2.587777    0.951391
 H    0.252138    0.950451   -1.810777
 H   -0.384811    2.045771    0.169585
 H    1.041005    1.419550    1.014135
 H    1.591377    3.744166    0.893183
 H    0.841933    3.914136   -0.700679
 H    3.378185    2.351339   -0.058652
 H    3.236291    3.698038   -1.205056
 H    1.840535    2.379724   -2.679619
 H    3.031676    1.187722   -2.143658
 H   -1.192348   -0.266429    0.068253
 H   -2.892436   -0.863866   -2.241878
 H   -2.761314    1.529267   -1.507747
 H   -2.497040    1.177815    0.953313
 H   -3.889780    2.194894    0.601463
 H   -4.446495    0.449508    2.285714
 H   -4.467483   -1.937101    1.593761
 H   -2.835131   -1.280333    1.510466
 H   -3.362978   -2.594983   -0.535576
 H   -5.830442   -2.235816   -0.505742
 H   -5.146465   -1.794724   -2.074717
 H   -6.459978   -0.451792    1.139278
 H   -6.220441    1.251183    0.733896
 H   -4.794966    0.637549   -2.650416
 H   -5.234264    1.887752   -1.488564
 H   -7.607639   -0.628874   -1.064233
 H    4.772325    0.336744    0.610942
 H    5.344747   -1.158755    3.013511
 H    5.714368    0.554629    2.787458
 H    7.958901    0.134600    2.270719
 H    7.714612   -1.473633    3.000720
 H    7.020196    0.208459   -0.202370
 H    6.462087   -1.396488   -0.759400
