21 
5am2_ligand_xtb.xyz
 C  -19.900875   -5.259280   11.797333
 C  -18.595333   -5.025736   11.439857
 C  -18.006816   -7.273317   11.994814
 C  -20.299530   -6.517327   12.267613
 C  -19.328710   -7.530937   12.363088
 C  -17.625067   -6.030796   11.532944
 C  -21.647691   -6.804581   12.650881
 C  -21.961705   -8.036894   13.094794
 C  -19.684716   -8.863923   12.846386
 C  -16.210265   -5.743814   11.135716
 N  -21.016208   -9.015780   13.184890
 O  -18.918895   -9.803139   12.965182
 H  -20.636925   -4.472028   11.719206
 H  -18.304704   -4.048975   11.078820
 H  -17.294222   -8.079954   12.083925
 H  -22.397194   -6.033908   12.581046
 H  -22.960549   -8.312736   13.398268
 H  -16.165668   -5.428454   10.093819
 H  -15.802264   -4.937280   11.744102
 H  -15.586744   -6.624696   11.260788
 H  -21.275317   -9.934243   13.521231
