21 
5am2_ligand_aiqm1.xyz
 C  -19.911964   -5.254953   11.798565
 C  -18.595994   -5.019957   11.438350
 C  -18.006137   -7.274161   11.994979
 C  -20.307367   -6.516022   12.269103
 C  -19.334611   -7.527200   12.363373
 C  -17.617763   -6.028013   11.530573
 C  -21.667700   -6.801561   12.654449
 C  -21.975599   -8.035338   13.097349
 C  -19.688456   -8.869334   12.849264
 C  -16.192604   -5.745196   11.132287
 N  -21.019183   -9.024330   13.188312
 O  -18.904524   -9.799889   12.960269
 H  -20.644533   -4.461490   11.717812
 H  -18.313849   -4.036310   11.077007
 H  -17.289942   -8.081417   12.083487
 H  -22.432248   -6.039911   12.590564
 H  -22.971597   -8.319206   13.402358
 H  -16.136689   -5.432757   10.088138
 H  -15.773292   -4.940099   11.738165
 H  -15.567539   -6.629070   11.258617
 H  -21.267807   -9.941588   13.521678
