62 
5am3_ligand_ani-2x.xyz
 C   16.190276    9.290846    8.084823
 C   18.138551    7.954424    7.642215
 C   16.667256    9.595523    9.354040
 C   18.622839    8.241230    8.904412
 C   16.919716    8.489450    7.212259
 C   17.895119    9.073226    9.766042
 C   16.325747    8.198437    5.869504
 C   15.784768   11.081592   16.743498
 C   16.090392   10.265578   13.738930
 C   18.298254   11.458633   14.022117
 C   16.715799    9.394295   12.649313
 C   18.902184   10.590465   12.916888
 C   13.014215    9.868345   20.575547
 C   13.848478   11.994920   21.606874
 C   11.806503   12.023625   20.147553
 C   15.149185   10.895805   19.762943
 C   13.112804   10.925239   18.309525
 C   13.940072   13.044426   19.343916
 C   14.269235   10.649681   20.995384
 C   12.224797   10.678452   19.535201
 C   13.055804   12.808153   20.573133
 C   17.153002   10.743792   14.740686
 C   17.834706   10.144024   11.923989
 C   14.371710   11.711840   18.712887
 N   16.612091   11.617657   15.772722
 N   15.182341   12.036506   17.534311
 O   15.146572    8.275922    5.642531
 O   15.623877    9.874199   16.873083
 O   17.180016    7.834708    4.886316
 O   18.483147    9.307249   10.967713
 H   15.230656    9.673669    7.751099
 H   18.707024    7.276201    7.005830
 H   16.073747   10.227517   10.006043
 H   19.572523    7.842261    9.248824
 H   15.319393    9.712208   14.284827
 H   15.604889   11.141856   13.282378
 H   17.905405   12.389730   13.582950
 H   19.060149   11.746466   14.755315
 H   15.952322    9.054929   11.940028
 H   17.148263    8.488413   13.095999
 H   19.359542    9.690482   13.350530
 H   19.696789   11.125980   12.385207
 H   12.384992    9.666597   21.452994
 H   13.303661    8.897385   20.151158
 H   14.738427   12.556629   21.919970
 H   13.237112   11.825565   22.503680
 H   11.152271   11.855931   21.013927
 H   11.233540   12.605279   19.413396
 H   15.466063    9.949146   19.310398
 H   16.056754   11.446565   20.044229
 H   12.570127   11.500189   17.548121
 H   13.420512    9.979954   17.849020
 H   14.835956   13.613260   19.631769
 H   13.400706   13.634109   18.589536
 H   14.835909   10.068764   21.735087
 H   11.331569   10.117385   19.229729
 H   12.759731   13.772504   21.006561
 H   17.547496    9.859179   15.253861
 H   17.429462   11.032144   11.417300
 H   16.400713   12.562398   15.476197
 H   15.612618   12.952216   17.537738
 H   18.096222    7.960448    5.168043
