44 
5am4_ligand_aiqm1.xyz
 C  -15.855888  -10.023471   12.235370
 C  -14.624246  -10.283310   11.623678
 C  -14.512260   -9.996235   10.278156
 C  -15.573282   -9.464616    9.527422
 C  -16.778771   -9.217990   10.158097
 C  -16.934665   -9.496622   11.528787
 C  -18.249676   -9.232649   12.237330
 C  -18.625859   -7.745725   12.218198
 C  -19.932503   -7.496809   12.967760
 C  -21.064207   -8.337505   12.381064
 C  -20.700030   -9.820191   12.408605
 C  -19.394670  -10.073152   11.658170
 C  -15.114041   -9.270371    8.090388
 C  -15.099076   -7.810720    7.596693
 C  -16.491099   -7.338181    7.203670
 O  -17.063643   -8.176026    6.216358
 C  -17.206559   -9.505232    6.682574
 C  -15.860628  -10.117539    7.041780
 C  -13.654434   -9.769621    8.162098
 O  -12.864750   -9.809478    7.246779
 N  -13.399416  -10.164552    9.449266
 H  -15.970500  -10.239702   13.290397
 H  -13.796940  -10.692815   12.188214
 H  -17.621828   -8.808386    9.614681
 H  -18.125114   -9.526628   13.288172
 H  -18.739784   -7.425005   11.176143
 H  -17.817092   -7.148710   12.647864
 H  -20.186850   -6.435425   12.938591
 H  -19.799027   -7.763912   14.021894
 H  -21.241151   -8.029724   11.345137
 H  -21.992472   -8.162533   12.928210
 H  -21.503688  -10.421681   11.979165
 H  -20.584023  -10.139892   13.450093
 H  -19.133657  -11.134312   11.688918
 H  -19.526807   -9.807899   10.602752
 H  -14.451059   -7.775024    6.717625
 H  -14.677804   -7.147314    8.356447
 H  -16.446617   -6.342227    6.764687
 H  -17.149446   -7.291030    8.081587
 H  -17.674387  -10.060606    5.870599
 H  -17.887920   -9.528189    7.543739
 H  -15.996746  -11.142866    7.395291
 H  -15.234317  -10.147159    6.146885
 H  -12.506366  -10.525966    9.729366
