37 
5am5_ligand_ani-2x.xyz
 C   15.020231    6.493621    6.827689
 C   16.137604    7.514391    6.623233
 C   15.732923    8.948260    7.011175
 C   15.386275    9.093780    8.457929
 C   16.332845    9.162584    9.444850
 C   16.003039    9.233150   10.825895
 C   14.682914    9.237152   11.148245
 N   13.722228    9.177680   10.175370
 C   13.969924    9.096799    8.810408
 O   13.034682    9.028106    8.023552
 C   17.067887    9.274245   11.903804
 C   17.820848    7.937580   12.008649
 C   18.891570    7.978523   13.101166
 C   19.865674    9.139675   12.885233
 C   19.121139   10.473198   12.782466
 C   18.058236   10.426142   11.682833
 H   14.758661    6.395316    7.887174
 H   14.111606    6.786949    6.288357
 H   15.324808    5.505729    6.467331
 H   16.450987    7.513201    5.571611
 H   17.018896    7.220926    7.210639
 H   14.863192    9.252175    6.418418
 H   16.557068    9.629061    6.754544
 H   17.381805    9.160464    9.149834
 H   14.317399    9.291079   12.168920
 H   12.740078    9.182354   10.419675
 H   16.568068    9.448551   12.869460
 H   18.290095    7.724907   11.036472
 H   17.108358    7.126082   12.196187
 H   19.432196    7.024971   13.136776
 H   18.403010    8.096489   14.079865
 H   20.426879    8.969841   11.954691
 H   20.606235    9.174296   13.693591
 H   19.824841   11.292964   12.594345
 H   18.636056   10.691922   13.745270
 H   17.511664   11.374673   11.625929
 H   18.551979   10.291465   10.710315
