37 
5amn_ligand_aiqm1.xyz
 N   71.270703   -9.973307   11.100497
 C   71.588931   -8.778623   11.654001
 N   72.778213   -8.272615   11.870039
 C   73.826551   -9.057859   11.484288
 C   73.641981  -10.318565   10.897531
 C   72.283627  -10.731846   10.727856
 C   75.137717   -8.568902   11.690241
 C   76.227914   -9.311581   11.323660
 C   76.047203  -10.600982   10.723375
 C   74.782253  -11.086753   10.518120
 N   72.039352  -11.956383   10.159044
 C   70.836882  -12.627397    9.866293
 C   70.979092  -13.885640    9.275169
 C   69.857270  -14.633526    8.945091
 C   68.578833  -14.144186    9.196556
 C   68.452471  -12.891103    9.784968
 C   69.557682  -12.118601   10.126845
 O   70.081507  -15.854365    8.370068
 O   77.514307   -8.937460   11.476306
 C   77.739123   -7.665853   12.067614
 O   77.197746  -11.237706   10.405304
 C   77.075614  -12.516635    9.808739
 H   70.742037   -8.173412   11.951947
 H   75.229427   -7.594798   12.144503
 H   74.659862  -12.059854   10.064835
 H   72.860583  -12.469238    9.904705
 H   71.958502  -14.303137    9.062565
 H   67.703999  -14.727863    8.938971
 H   67.460830  -12.506334    9.982463
 H   69.437130  -11.151411   10.581395
 H   69.234915  -16.268480    8.190924
 H   77.300628   -6.868002   11.464860
 H   77.328664   -7.623303   13.078488
 H   78.816285   -7.543541   12.106153
 H   76.564388  -13.216315   10.474388
 H   76.536093  -12.460656    8.860174
 H   78.088288  -12.860268    9.630125
