37 
5amn_ligand_xtb.xyz
 N   71.289669  -10.038375   11.079720
 C   71.572580   -8.856916   11.624691
 N   72.748335   -8.342710   11.837494
 C   73.810137   -9.092473   11.462706
 C   73.654109  -10.368724   10.870391
 C   72.298526  -10.803835   10.698941
 C   75.102087   -8.573651   11.674921
 C   76.213615   -9.288170   11.315336
 C   76.060683  -10.578803   10.716106
 C   74.807540  -11.092769   10.505320
 N   72.047999  -12.016824   10.138676
 C   70.848227  -12.662378    9.865900
 C   70.934532  -13.921884    9.276163
 C   69.786281  -14.636413    8.970034
 C   68.538332  -14.094052    9.252715
 C   68.459249  -12.842863    9.838399
 C   69.595773  -12.121193   10.148142
 O   69.932686  -15.862514    8.394492
 O   77.495770   -8.884854   11.473829
 C   77.727653   -7.625027   12.056919
 O   77.229617  -11.196250   10.400460
 C   77.180877  -12.468716    9.806890
 H   70.714538   -8.265768   11.920526
 H   75.163935   -7.599091   12.128576
 H   74.711069  -12.067550   10.052311
 H   72.863849  -12.547913    9.871254
 H   71.891512  -14.366561    9.045974
 H   67.641061  -14.649195    9.014978
 H   67.489656  -12.421909   10.057814
 H   69.533820  -11.148829   10.603297
 H   69.063674  -16.249364    8.234424
 H   77.290916   -6.820154   11.457516
 H   77.328428   -7.575577   13.074768
 H   78.809811   -7.509804   12.085637
 H   76.699881  -13.202657   10.462800
 H   76.661798  -12.445324    8.842397
 H   78.218373  -12.757409    9.647584
