45 
5ans_ligand_ani-2x.xyz
 O  -26.242423   -2.037691   -5.377102
 C  -27.453930   -2.780951   -5.536932
 C  -28.501632   -2.245730   -4.559232
 C  -27.949797   -2.653773   -6.977842
 C  -27.129006   -4.236793   -5.154035
 N  -26.113597   -4.868865   -5.988854
 C  -24.761020   -4.658107   -5.831076
 C  -24.179722   -4.203966   -4.529339
 O  -24.587727   -5.079167   -3.497582
 C  -24.111453   -4.684429   -2.227377
 C  -24.509874   -5.744224   -1.220854
 N  -24.056232   -4.911645   -6.895544
 C  -24.983404   -5.350007   -7.810190
 C  -24.775735   -5.747594   -9.167925
 N  -23.518461   -5.659573   -9.680209
 C  -26.254474   -5.375289   -7.269250
 C  -27.354447   -5.875929   -8.030225
 C  -28.688577   -6.051608   -7.588408
 C  -29.664312   -6.493406   -8.448334
 C  -29.346297   -6.795168   -9.787479
 C  -28.059202   -6.663353  -10.232585
 C  -27.030226   -6.217724   -9.370457
 N  -25.764850   -6.153564   -9.916778
 H  -26.301885   -1.255055   -5.938158
 H  -29.421297   -2.839597   -4.614702
 H  -28.120055   -2.280745   -3.533959
 H  -28.752408   -1.204915   -4.795128
 H  -27.168207   -2.920665   -7.695837
 H  -28.819064   -3.294609   -7.156461
 H  -28.251115   -1.617627   -7.173727
 H  -28.029846   -4.849946   -5.190060
 H  -26.759709   -4.271145   -4.130678
 H  -24.511491   -3.174530   -4.321007
 H  -23.083187   -4.202273   -4.634092
 H  -24.540815   -3.707501   -1.947110
 H  -23.015303   -4.568042   -2.253436
 H  -25.598322   -5.848414   -1.185434
 H  -24.077701   -6.711767   -1.492647
 H  -24.154835   -5.473787   -0.220972
 H  -22.764974   -5.541082   -9.021285
 H  -23.334380   -6.127555  -10.553503
 H  -28.957365   -5.841956   -6.558328
 H  -30.683338   -6.608149   -8.093791
 H  -30.125519   -7.140363  -10.462205
 H  -27.773785   -6.898721  -11.253268
