45 
5anu_ligand_dft.xyz
 O    0.029085   -4.192837   -0.136295
 C   -0.534144   -3.118377   -0.153910
 N   -1.712988   -2.763294    0.493327
 C   -2.066293   -1.455540    0.139619
 N   -0.134129   -1.974199   -0.850918
 C   -1.057674   -0.971880   -0.676633
 C    1.135293   -1.864879   -1.548808
 C    2.251731   -1.342784   -0.668307
 C    3.363881   -2.133730   -0.396654
 C    4.398730   -1.627785    0.388809
 C    4.315610   -0.350724    0.925264
 C    2.165313   -0.051081   -0.140994
 C    3.189117    0.433283    0.666968
 O    3.179020    1.686794    1.214829
 C    1.972690    2.188962    1.765845
 C    1.319094    3.263934    0.916348
 O    0.584772    2.667996   -0.121964
 C   -0.047942    3.589053   -0.971786
 C   -0.955197    2.839328   -1.927096
 O   -2.071689    2.288391   -1.238107
 C   -2.007556    1.021450   -0.795469
 N   -0.992551    0.253384   -1.184613
 N   -3.021113    0.697345    0.004246
 C   -3.064934   -0.548591    0.497732
 N   -4.109953   -0.884488    1.311946
 C   -5.021996    0.131679    1.804361
 H   -2.332655   -3.483559    0.826347
 H    0.972676   -1.199020   -2.401188
 H    1.374637   -2.862028   -1.924847
 H    3.420770   -3.143330   -0.793215
 H    5.269105   -2.242487    0.598529
 H    5.103175    0.054083    1.552327
 H    1.318346    0.585017   -0.380036
 H    2.244489    2.631210    2.730938
 H    1.256662    1.377880    1.943884
 H    2.095594    3.935911    0.518716
 H    0.648793    3.861807    1.556761
 H    0.694709    4.161530   -1.552480
 H   -0.646932    4.304828   -0.386594
 H   -0.400374    2.059335   -2.451474
 H   -1.375483    3.542474   -2.651095
 H   -3.950005   -1.671160    1.922473
 H   -4.527831    0.857984    2.461885
 H   -5.447673    0.676522    0.960728
 H   -5.826696   -0.364900    2.350980
