45 
5anu_ligand_xtb.xyz
 O   18.150639   21.979519    3.755863
 C   17.307569   21.237968    4.201171
 N   17.422549   20.427759    5.309172
 C   16.243528   19.716797    5.495882
 N   16.041423   21.011183    3.683171
 C   15.387945   20.102227    4.460772
 C   15.486803   21.717525    2.551363
 C   14.811175   23.001138    2.970164
 C   15.181994   24.212140    2.409627
 C   14.540466   25.376817    2.801233
 C   13.557455   25.341944    3.767790
 C   13.811752   22.956260    3.936238
 C   13.196027   24.127562    4.352448
 O   12.231619   24.204086    5.320279
 C   12.012698   23.121448    6.191979
 C   10.996800   22.089597    5.679854
 O   11.675501   20.987439    5.125995
 C   10.829754   19.910187    4.808691
 C   11.662246   18.782574    4.196750
 O   12.558028   18.231941    5.145290
 C   13.779874   18.769864    5.214601
 N   14.159085   19.637390    4.283659
 N   14.503773   18.326609    6.231015
 C   15.751873   18.774218    6.402814
 N   16.457703   18.323985    7.466968
 C   15.982291   17.265913    8.320289
 H   18.243267   20.412218    5.888463
 H   14.763902   21.046584    2.078497
 H   16.308200   21.931143    1.863097
 H   15.967008   24.246772    1.669896
 H   14.820547   26.320540    2.357641
 H   13.058101   26.240542    4.094065
 H   13.509191   22.002515    4.337159
 H   11.619112   23.583462    7.102198
 H   12.948546   22.603533    6.429444
 H   10.343474   22.558922    4.928927
 H   10.369705   21.750122    6.518177
 H   10.061663   20.222890    4.084169
 H   10.327559   19.547105    5.718915
 H   12.221682   19.165135    3.339787
 H   11.000562   17.966669    3.896905
 H   17.434054   18.563703    7.518332
 H   16.122143   17.540271    9.366866
 H   14.923935   17.134743    8.109955
 H   16.507879   16.327241    8.124427
