41 
5anw_ligand_aiqm1.xyz
 O    8.880273   20.691359    2.866436
 C    9.427777   20.683733    3.959067
 N    9.517787   19.560542    4.717653
 C   10.299867   19.421860    5.931265
 C    9.038618   18.307022    4.161392
 C   10.033311   21.972230    4.508707
 C   11.539216   21.985307    4.376601
 C   12.132885   21.712086    3.140386
 C   13.517391   21.711901    3.001415
 C   14.343868   21.982324    4.098882
 C   13.751413   22.238002    5.336254
 C   12.367549   22.250895    5.471368
 C   15.828457   21.954537    4.013984
 N   16.444057   21.308177    4.979471
 C   17.803552   21.225576    4.904050
 N   18.403937   20.611663    5.972958
 N   18.577184   21.683992    3.947487
 C   17.954502   22.400768    2.972731
 C   16.553833   22.599316    2.963697
 C   18.745446   22.974956    1.945003
 C   18.162888   23.747769    0.972459
 C   16.768089   23.986938    0.986584
 C   15.979785   23.425456    1.960167
 H    9.730805   18.820716    6.644985
 H   11.244683   18.907753    5.736683
 H   10.513138   20.379631    6.392590
 H    9.878968   17.663860    3.887890
 H    8.431982   17.784119    4.904080
 H    8.443309   18.522209    3.280023
 H    9.737116   22.132365    5.546886
 H    9.602958   22.769188    3.904911
 H   11.505235   21.498552    2.283785
 H   13.954394   21.477092    2.038148
 H   14.386651   22.419879    6.193719
 H   11.929900   22.467575    6.440845
 H   17.803719   20.003233    6.501830
 H   19.335788   20.277476    5.798353
 H   19.811565   22.795363    1.973124
 H   18.772733   24.191712    0.195182
 H   16.323609   24.620252    0.231240
 H   14.918564   23.631316    1.977110
