41 
5anw_ligand_xtb.xyz
 O    8.674167   20.861780    3.004617
 C    9.394996   20.790802    3.982569
 N    9.679023   19.610647    4.580383
 C   10.556932   19.439236    5.711156
 C    9.201759   18.387884    3.973787
 C   10.026689   22.038214    4.591913
 C   11.524551   22.017780    4.473913
 C   12.116235   21.664422    3.265486
 C   13.490552   21.644536    3.129931
 C   14.307554   21.981434    4.206564
 C   13.718032   22.317939    5.421113
 C   12.342923   22.342241    5.549145
 C   15.773435   21.950332    4.096862
 N   16.414540   21.334063    5.060544
 C   17.758139   21.226203    4.960778
 N   18.377396   20.644199    6.014038
 N   18.497559   21.638932    3.954981
 C   17.871888   22.318225    2.975839
 C   16.467330   22.545146    3.004148
 C   18.626876   22.826842    1.898793
 C   18.016135   23.560037    0.920526
 C   16.639764   23.830075    0.978210
 C   15.877340   23.335749    2.001291
 H   10.272526   18.526234    6.234849
 H   11.602425   19.350332    5.398893
 H   10.473422   20.270392    6.406734
 H   10.042940   17.766927    3.656816
 H    8.589013   17.826325    4.682084
 H    8.599759   18.653039    3.107083
 H    9.718130   22.154349    5.632457
 H    9.628733   22.884617    4.025472
 H   11.487627   21.401301    2.427122
 H   13.934557   21.339128    2.193568
 H   14.352802   22.565879    6.257893
 H   11.900887   22.618083    6.496567
 H   17.806261   20.161546    6.684009
 H   19.341194   20.385045    5.904082
 H   19.687690   22.632534    1.888314
 H   18.595767   23.954734    0.098425
 H   16.186239   24.438123    0.209409
 H   14.823011   23.563393    2.059036
