41 
5anw_ligand_ani-2x.xyz
 O    8.564840   20.894351    3.076791
 C    9.333425   20.777211    4.021060
 N    9.610202   19.560834    4.582671
 C   10.576711   19.358639    5.645020
 C    9.055918   18.373156    3.959660
 C   10.013344   22.007090    4.626356
 C   11.522788   22.010317    4.504435
 C   12.127348   21.677596    3.290668
 C   13.508993   21.689277    3.157479
 C   14.329167   22.035329    4.237733
 C   13.725212   22.326361    5.464732
 C   12.341690   22.334435    5.588416
 C   15.805940   22.037418    4.140861
 N   16.462515   21.507347    5.150610
 C   17.804384   21.343889    5.010725
 N   18.437669   20.766727    6.079912
 N   18.541701   21.690492    3.978983
 C   17.892275   22.333118    2.973602
 C   16.501591   22.593565    3.003041
 C   18.652220   22.761890    1.856020
 C   18.066635   23.477017    0.845145
 C   16.693104   23.803537    0.905901
 C   15.927935   23.380202    1.963726
 H   10.385834   18.388555    6.110643
 H   11.610175   19.371387    5.274291
 H   10.474170   20.120760    6.422151
 H    9.835223   17.789035    3.453093
 H    8.584677   17.736676    4.717777
 H    8.310932   18.687843    3.229119
 H    9.718890   22.117331    5.677499
 H    9.582384   22.855957    4.087862
 H   11.504821   21.427460    2.434239
 H   13.956427   21.424132    2.202293
 H   14.355044   22.549021    6.321605
 H   11.897875   22.590849    6.549724
 H   17.842726   20.254077    6.711553
 H   19.350478   20.381077    5.891590
 H   19.710956   22.517657    1.844909
 H   18.660322   23.808152   -0.003116
 H   16.243069   24.387294    0.108288
 H   14.877190   23.651641    2.022329
