28 
5aok_ligand_ani-2x.xyz
 C  123.773036  101.434191  -46.475284
 N  123.758577  102.676667  -46.130938
 C  124.353338  102.710095  -44.873698
 C  124.706043  101.434209  -44.518604
 O  124.337324  100.624983  -45.535932
 C  124.468323  104.004256  -44.242762
 N  125.303720  100.799266  -43.455693
 C  123.283644  100.792953  -47.693823
 C  125.775347  101.390370  -42.292050
 C  126.293677  100.412548  -41.497471
 C  126.138629   99.172426  -42.191345
 C  125.533377   99.436103  -43.380457
 N  124.966617  104.381713  -43.085218
 N  124.800149  105.727710  -43.028695
 N  124.229244  106.167368  -44.092003
 N  124.013163  105.102099  -44.865264
 C  124.025190   99.593882  -48.235568
 C  122.693019   99.405840  -47.601289
 H  122.847128  101.487530  -48.404575
 H  123.572083  105.150569  -45.774985
 H  125.686184  102.460328  -42.160036
 H  125.239296   98.779878  -44.191251
 H  124.106254   99.509952  -49.314207
 H  124.895936   99.268772  -47.672577
 H  122.670546   98.954770  -46.612910
 H  121.839042   99.189928  -48.234669
 H  126.740644  100.548191  -40.521231
 H  126.445472   98.195404  -41.839462
