57 
5ap1_ligand_xtb.xyz
 N   -0.388555  -21.454022  -52.923137
 C   -1.393268  -20.980292  -52.655908
 C   -2.671026  -20.378515  -52.312947
 O   -2.574216  -19.071870  -51.802084
 C   -1.979325  -18.869924  -50.578804
 C   -2.005589  -17.554681  -50.080915
 C   -2.611578  -16.455411  -50.814063
 C   -3.597660  -16.473112  -51.786807
 C   -2.312282  -15.081721  -50.676517
 N   -3.045208  -14.348619  -51.487056
 N   -3.823246  -15.196981  -52.151039
 C   -4.758763  -14.718347  -53.126034
 C   -1.368233  -19.877507  -49.855634
 C   -0.765744  -19.617010  -48.621656
 C   -0.804353  -18.323679  -48.113969
 C   -1.411882  -17.323287  -48.843361
 N   -0.177545  -20.686321  -47.966132
 C    0.543726  -20.741309  -46.806446
 N    0.810228  -19.622075  -46.143880
 C    1.507985  -19.677197  -45.012980
 C    1.959690  -20.910260  -44.469105
 C    2.661942  -20.926373  -43.258011
 N    3.228716  -20.899793  -42.257029
 C    1.678272  -22.078133  -45.178826
 C    0.974798  -22.004075  -46.357533
 N    1.803123  -18.515423  -44.397864
 C    1.350957  -17.222042  -44.858029
 C    2.317866  -16.137682  -44.389796
 C    1.865867  -14.772242  -44.900980
 C    0.450116  -14.461573  -44.424026
 C   -0.517053  -15.549855  -44.880104
 C   -0.067071  -16.912712  -44.364227
 H   -3.200096  -21.047912  -51.614477
 H   -3.262459  -20.286439  -53.232035
 H   -4.145665  -17.283849  -52.218749
 H   -1.586871  -14.613747  -50.042091
 H   -4.534751  -15.130802  -54.111923
 H   -5.779170  -14.992330  -52.850094
 H   -4.672922  -13.634299  -53.160714
 H   -1.323798  -20.885679  -50.242902
 H   -0.356739  -18.123248  -47.158291
 H   -1.442739  -16.323710  -48.438375
 H   -0.267795  -21.573825  -48.441941
 H    2.016119  -23.029121  -44.793272
 H    0.747200  -22.892074  -46.926113
 H    2.235416  -18.567008  -43.487815
 H    1.347134  -17.261652  -45.952499
 H    3.323654  -16.360852  -44.751117
 H    2.345173  -16.127409  -43.297006
 H    1.888916  -14.770673  -45.992881
 H    2.555110  -14.001911  -44.550183
 H    0.131798  -13.493421  -44.815035
 H    0.440022  -14.401255  -43.333358
 H   -0.550559  -15.571348  -45.971412
 H   -1.523471  -15.331373  -44.518244
 H   -0.074371  -16.915565  -43.271377
 H   -0.747326  -17.693354  -44.709195
