39 
5aqg_ligand_xtb.xyz
 C   -4.223265    1.079294    0.093915
 N   -0.273390   -0.131227   -0.565930
 O   -2.452477    0.241886   -1.297124
 C   -3.757631   -0.077970   -0.801424
 N    2.248847    3.560476   -0.795432
 O   -1.748545   -2.859871    0.306228
 C   -1.527832   -0.742659   -0.936115
 N    3.588813    1.979492    0.303820
 O   -4.068078   -2.460996   -0.895716
 C   -2.144170   -1.527656    0.247503
 N    3.850458    0.768009    0.989160
 O   -3.306436    1.335832    1.124749
 C   -3.646108   -1.419667   -0.061816
 N    0.809950   -1.995975    0.664801
 C    0.141931    1.146073   -0.889543
 N    3.019842   -1.427112    1.438705
 C    1.402352    1.359325   -0.391489
 C    2.411257    2.400986   -0.320493
 C    2.920573   -0.197796    0.917479
 C    1.751758    0.153280    0.251305
 C    0.712971   -0.759384    0.135225
 C    1.964541   -2.219252    1.273361
 C    5.179854    0.573140    1.490644
 H   -4.361531    1.971788   -0.530584
 H   -5.171569    0.825561    0.569357
 H   -4.436531   -0.192212   -1.653499
 H    3.029416    4.199255   -0.676349
 H   -0.782768   -2.866969    0.494043
 H   -1.355808   -1.437833   -1.779397
 H    4.266515    2.697198    0.521836
 H   -3.529050   -3.233871   -0.669363
 H   -1.921006   -0.991924    1.182172
 H   -2.460938    1.550358    0.709115
 H   -4.238075   -1.409969    0.863376
 H   -0.502568    1.786664   -1.454506
 H    2.068623   -3.205419    1.705783
 H    5.918809    0.623706    0.685714
 H    5.201494   -0.417678    1.939771
 H    5.419774    1.323016    2.248820
