17 
5aqj_ligand_xtb.xyz
 N  -16.387304 -105.795497   -6.032305
 C  -16.628598 -106.913974   -5.370419
 N  -16.978713 -107.058801   -4.104051
 C  -17.085010 -105.895341   -3.470098
 C  -16.860758 -104.633364   -4.042073
 C  -16.488509 -104.625675   -5.393653
 N  -16.195483 -103.494089   -6.069910
 N  -17.077686 -103.644994   -3.105566
 C  -17.407502 -104.282458   -2.018470
 N  -17.634991 -103.694104   -0.806390
 N  -17.439603 -105.649897   -2.169610
 H  -16.529257 -107.827613   -5.940929
 H  -16.060150 -103.555104   -7.062983
 H  -16.402903 -102.612249   -5.638099
 H  -17.764328 -102.696600   -0.863954
 H  -18.275699 -104.167403   -0.189124
 H  -17.631507 -106.341835   -1.466366
