20 
5aqn_ligand_xtb.xyz
 O  -28.163049   18.335402   63.717086
 C  -28.731730   17.830065   62.777404
 N  -29.455987   18.619797   61.866356
 C  -30.128314   18.149678   60.783118
 N  -30.196332   16.916802   60.438918
 C  -29.529151   16.052120   61.250462
 C  -28.816994   16.447489   62.377745
 O  -28.246488   15.396002   63.010028
 C  -28.584403   14.296419   62.293248
 C  -29.385811   14.630743   61.179453
 C  -28.223714   12.984837   62.563342
 C  -28.682521   12.014817   61.694861
 C  -29.475958   12.333482   60.590076
 C  -29.836841   13.634483   60.317366
 H  -29.452194   19.612532   62.069624
 H  -30.640013   18.881380   60.174046
 H  -27.611484   12.745820   63.417474
 H  -28.421895   10.982505   61.873264
 H  -29.810063   11.538704   59.940255
 H  -30.448557   13.891826   59.467774
