18 
5aqp_ligand_aiqm1.xyz
 C  203.169385   -8.098155   60.872643
 C  203.801833   -9.044937   61.641189
 C  204.452320   -8.678721   62.841731
 C  204.455607   -7.367641   63.248698
 C  203.808933   -6.378214   62.469479
 C  203.160982   -6.742334   61.273456
 N  202.520837   -5.825627   60.482224
 C  202.554053   -4.590367   60.915147
 N  203.136360   -4.104221   62.039137
 C  203.754941   -4.984151   62.805720
 N  204.339482   -4.505231   63.931557
 H  202.665384   -8.354348   59.950708
 H  203.805101  -10.081784   61.329305
 H  204.946906   -9.434533   63.437634
 H  204.957792   -7.098540   64.170996
 H  202.054101   -3.848084   60.305779
 H  204.828826   -5.087176   64.579675
 H  204.262958   -3.520536   64.107923
