18 
5aqp_ligand_dft.xyz
 C   -1.780881   -1.228103   -0.000870
 C   -2.719780   -0.227050   -0.000397
 C   -2.324428    1.128116    0.000661
 C   -0.990320    1.455827    0.000957
 C   -0.005843    0.441832    0.000218
 C   -0.399962   -0.916616   -0.000362
 N    0.505240   -1.941988   -0.000226
 C    1.762630   -1.580843    0.000665
 N    2.279461   -0.332920    0.000634
 C    1.416077    0.669391    0.000203
 N    1.937663    1.918829   -0.000251
 H   -2.058788   -2.276800   -0.001470
 H   -3.777151   -0.474803   -0.000690
 H   -3.076969    1.910321    0.001414
 H   -0.706930    2.504825    0.002228
 H    2.500931   -2.380588    0.000870
 H    1.375991    2.750495   -0.006916
 H    2.941408    2.003775   -0.002977
