21 
5aqq_ligand_ani-2x.xyz
 N  326.411209    7.598097  252.019655
 C  327.159603    7.325350  253.113356
 C  327.294845    5.982405  253.605998
 C  326.691286    4.844872  253.031459
 N  327.755387    8.348809  253.703894
 C  328.498151    8.060469  254.795447
 N  328.709365    6.899179  255.351724
 C  328.100984    5.834321  254.753604
 C  328.284787    4.545235  255.302110
 C  327.693968    3.437644  254.738492
 C  327.897644    2.065541  255.333507
 C  326.888672    3.603685  253.587559
 H  325.921426    6.886615  251.509684
 H  326.346793    8.556377  251.714376
 H  326.065775    4.935398  252.145957
 H  328.978021    8.920053  255.263798
 H  328.910114    4.460473  256.185801
 H  328.958775    1.791278  255.343060
 H  327.541432    2.025920  256.369287
 H  327.359449    1.303923  254.764337
 H  326.419810    2.730457  253.138994
