22 
5aqr_ligand_aiqm1.xyz
 N  204.244842   -4.525287   64.423213
 C  203.551900   -5.014557   63.341409
 N  202.967484   -4.132842   62.557832
 C  202.324190   -4.625272   61.467741
 N  202.192455   -5.875298   61.104389
 C  202.801423   -6.789888   61.918263
 C  203.520542   -6.418900   63.064912
 C  204.168259   -7.399175   63.866273
 C  204.071598   -8.725395   63.512115
 O  204.642930   -9.762767   64.178434
 C  205.445916   -9.447707   65.303017
 C  203.325542   -9.106220   62.364652
 C  202.711288   -8.163847   61.587918
 H  204.042831   -3.556872   64.614469
 H  204.297793   -5.107184   65.240227
 H  201.860286   -3.879844   60.835704
 H  204.754880   -7.089665   64.720277
 H  206.285125   -8.808789   65.021587
 H  204.858712   -8.955741   66.081905
 H  205.819469  -10.396017   65.675926
 H  203.269619  -10.160564   62.124528
 H  202.151015   -8.439869   60.705308
