22 
5aqr_ligand_xtb.xyz
 N  204.155253   -4.487439   64.429608
 C  203.520158   -5.010912   63.359562
 N  202.893637   -4.151755   62.575093
 C  202.257483   -4.639309   61.508263
 N  202.175464   -5.882469   61.135829
 C  202.804734   -6.792779   61.914704
 C  203.518901   -6.416234   63.078908
 C  204.158287   -7.395754   63.860021
 C  204.089692   -8.719640   63.492533
 O  204.665643   -9.754489   64.165999
 C  205.395423   -9.476468   65.334464
 C  203.377261   -9.092123   62.331412
 C  202.751588   -8.157261   61.562478
 H  204.107020   -3.492948   64.558175
 H  204.654653   -5.054487   65.086511
 H  201.756296   -3.904675   60.890131
 H  204.700060   -7.099797   64.745257
 H  206.251761   -8.825053   65.129144
 H  204.764610   -9.018553   66.104012
 H  205.756044  -10.438941   65.693566
 H  203.349273  -10.140970   62.080285
 H  202.204859   -8.429642   60.674143
