22 
5aqr_ligand_ani-2x.xyz
 N  204.223684   -4.537633   64.439583
 C  203.552684   -5.013529   63.343484
 N  202.980705   -4.130748   62.547230
 C  202.327387   -4.625938   61.470986
 N  202.192248   -5.873267   61.110776
 C  202.802244   -6.789670   61.916928
 C  203.534229   -6.420467   63.060406
 C  204.203918   -7.396995   63.841523
 C  204.086513   -8.726266   63.496979
 O  204.658592   -9.760803   64.169460
 C  205.439609   -9.443456   65.300117
 C  203.323581   -9.107046   62.364829
 C  202.703209   -8.166073   61.594452
 H  204.049767   -3.558987   64.628060
 H  204.226358   -5.117883   65.265506
 H  201.855610   -3.877633   60.834445
 H  204.822896   -7.083385   64.677876
 H  206.305179   -8.825162   65.029564
 H  204.847127   -8.922788   66.063264
 H  205.789551  -10.395200   65.702582
 H  203.258349  -10.166507   62.133472
 H  202.124659   -8.442262   60.718576
