41 
5aqu_ligand_ani-2x.xyz
 O   -1.930236   -2.700273    0.520765
 C   -1.998496   -1.298212    0.684017
 C   -3.451184   -0.837773    0.821836
 O   -4.249615   -1.553260   -0.096633
 C   -3.429838    0.628267    0.363956
 C   -2.960967    1.610316    1.429587
 O   -1.560880    1.458116    1.648757
 C   -2.486789    0.581970   -0.854149
 C   -1.465539   -0.534926   -0.559992
 N   -0.125406   -0.028487   -0.358630
 C    0.936978   -0.860398   -0.314621
 C    2.268667   -0.351493   -0.080516
 C    2.626552    1.010071    0.135225
 O    1.678259    2.008587    0.096748
 C    1.500275    2.535815   -1.212987
 C    3.932786    1.356623    0.390980
 C    4.932581    0.367762    0.428176
 C    4.624879   -0.949066    0.195308
 C    3.289745   -1.333681   -0.068287
 N    3.034112   -2.665341   -0.302761
 C    1.789617   -2.979544   -0.506835
 N    0.710424   -2.161951   -0.512246
 H   -1.037899   -2.867955    0.153892
 H   -1.431439   -0.997817    1.573351
 H   -3.817341   -0.953654    1.855992
 H   -3.873392   -2.447503   -0.132605
 H   -4.444086    0.918938    0.075690
 H   -3.178186    2.631429    1.086042
 H   -3.518726    1.438855    2.362753
 H   -1.251862    2.179070    2.211397
 H   -3.057520    0.322937   -1.751675
 H   -1.985749    1.539026   -1.038112
 H   -1.422416   -1.246461   -1.390748
 H   -0.063879    0.828006    0.178576
 H    0.657944    3.230937   -1.163322
 H    1.277540    1.735286   -1.929118
 H    2.396002    3.078370   -1.541868
 H    4.168925    2.404497    0.554492
 H    5.959568    0.659312    0.631372
 H    5.384766   -1.723804    0.208548
 H    1.572027   -4.033491   -0.676154
