51 
5aqv_ligand_xtb.xyz
 O   -3.869907   -0.212481   -1.318018
 C   -2.836571    0.375800   -0.572610
 C   -3.278548    1.748301   -0.040645
 O   -4.124573    2.393253   -0.955935
 C   -1.973612    2.547040    0.090783
 C   -1.243781    2.310844    1.413180
 O   -0.755747    0.986405    1.485826
 C   -1.144135    2.094549   -1.119277
 C   -1.573218    0.654929   -1.427316
 N   -0.522495   -0.290537   -1.143431
 C   -0.665321   -1.588720   -1.445247
 N   -1.748583   -1.938752   -2.140543
 C   -1.848678   -3.205916   -2.539315
 N   -1.011712   -4.174379   -2.321133
 C    0.084833   -3.881201   -1.580847
 C    0.323293   -2.570539   -1.090031
 C    0.992163   -4.916483   -1.294328
 C    2.097534   -4.658199   -0.533395
 C    2.341914   -3.377479   -0.029650
 C    1.475522   -2.338724   -0.296433
 O    1.652909   -1.068674    0.167956
 C    2.732394   -0.772082    1.034554
 C    2.605410    0.682636    1.402355
 C    2.563804    1.639813    0.395539
 C    2.420472    2.978993    0.709203
 C    2.320783    3.375184    2.033218
 C    2.359372    2.426271    3.040413
 C    2.495740    1.083945    2.726047
 H   -3.464874   -0.965234   -1.785076
 H   -2.555022   -0.265441    0.274191
 H   -3.792944    1.647759    0.927088
 H   -4.588565    1.688498   -1.431960
 H   -2.212559    3.610708    0.032014
 H   -1.930930    2.508942    2.247888
 H   -0.405239    3.018163    1.481223
 H   -0.231122    0.894178    2.288004
 H   -0.076662    2.150976   -0.911989
 H   -1.370589    2.735724   -1.969076
 H   -1.840325    0.537507   -2.483217
 H    0.111646   -0.046933   -0.395229
 H   -2.739593   -3.444899   -3.109020
 H    0.781171   -5.897700   -1.685973
 H    2.800453   -5.446333   -0.306970
 H    3.223806   -3.217411    0.570294
 H    2.691009   -1.403022    1.931961
 H    3.689187   -0.948821    0.520874
 H    2.640514    1.326185   -0.634985
 H    2.386955    3.716288   -0.079179
 H    2.211681    4.420967    2.279113
 H    2.279784    2.730252    4.073751
 H    2.522556    0.345751    3.515254
