51 
5aqv_ligand_ani-2x.xyz
 O   -3.874790   -0.292643   -1.103683
 C   -2.827497    0.378328   -0.434812
 C   -3.276221    1.771158    0.006552
 O   -4.013573    2.365482   -1.041081
 C   -1.969071    2.562252    0.152485
 C   -1.242297    2.313607    1.470770
 O   -0.716542    0.996168    1.496009
 C   -1.149940    2.088352   -1.067748
 C   -1.610445    0.643469   -1.363178
 N   -0.554502   -0.319934   -1.169127
 C   -0.697393   -1.621083   -1.476656
 N   -1.806374   -1.979600   -2.132509
 C   -1.872249   -3.262756   -2.558208
 N   -1.007701   -4.215926   -2.372106
 C    0.104732   -3.888947   -1.631765
 C    0.315519   -2.589543   -1.118956
 C    1.056030   -4.908035   -1.384763
 C    2.160547   -4.642980   -0.620009
 C    2.377389   -3.367088   -0.060343
 C    1.467691   -2.356681   -0.295427
 O    1.599629   -1.106461    0.236494
 C    2.710150   -0.779455    1.068903
 C    2.564019    0.683458    1.407508
 C    2.528756    1.621660    0.371426
 C    2.405138    2.979991    0.644337
 C    2.293164    3.419803    1.962237
 C    2.295597    2.488119    2.998417
 C    2.429089    1.126632    2.720453
 H   -3.438306   -1.014883   -1.601782
 H   -2.499867   -0.200344    0.437781
 H   -3.858275    1.734381    0.943006
 H   -4.523483    1.644683   -1.444815
 H   -2.197635    3.630840    0.092661
 H   -1.938197    2.458209    2.311619
 H   -0.428897    3.043332    1.581247
 H    0.060491    0.971134    2.071605
 H   -0.069643    2.139288   -0.888329
 H   -1.372045    2.720948   -1.931633
 H   -1.964978    0.552816   -2.396193
 H    0.159553   -0.084879   -0.493123
 H   -2.773366   -3.519966   -3.112553
 H    0.875457   -5.890365   -1.809057
 H    2.889724   -5.426757   -0.428189
 H    3.258919   -3.202759    0.551138
 H    2.691481   -1.391119    1.978989
 H    3.645845   -0.963623    0.523046
 H    2.594262    1.284351   -0.661803
 H    2.388012    3.697308   -0.173404
 H    2.187076    4.479191    2.180634
 H    2.199225    2.824175    4.027563
 H    2.425389    0.406594    3.536274
