46 
5ar7_ligand_aiqm1.xyz
 O   56.190038  -61.074584   12.685493
 C   56.343421  -62.272977   12.551968
 N   57.023540  -62.839449   11.491642
 C   57.614907  -62.141984   10.447739
 C   57.674514  -60.742417   10.211180
 C   58.374474  -60.655129    9.049356
 C   58.824095  -59.498449    8.193860
 C   58.362212  -58.181230    8.824230
 C   60.355148  -59.519738    8.099813
 C   58.208299  -59.648954    6.796877
 N   58.222871  -62.832817    9.514629
 N   55.871236  -63.220717   13.426916
 C   55.136892  -63.011831   14.610381
 C   54.734558  -61.750169   15.063587
 C   54.015377  -61.649470   16.251494
 C   53.689629  -62.784809   16.982940
 C   54.087955  -64.039963   16.540128
 C   54.805872  -64.146621   15.355486
 O   52.920728  -62.670604   18.127481
 C   53.585982  -62.529060   19.310077
 C   54.974481  -62.471163   19.429578
 C   55.509332  -62.322493   20.707886
 N   54.787105  -62.232533   21.826821
 C   53.457384  -62.291046   21.678418
 C   52.808976  -62.436942   20.461306
 O   58.712377  -61.888194    8.614813
 H   57.120336  -63.837463   11.423042
 H   57.262828  -59.953508   10.810630
 H   58.788174  -58.050972    9.820639
 H   58.692249  -57.350625    8.197977
 H   57.274248  -58.142175    8.901835
 H   60.690857  -58.702963    7.457522
 H   60.803703  -59.386091    9.086120
 H   60.709723  -60.461965    7.681000
 H   57.118637  -59.607912    6.849644
 H   58.551201  -58.831735    6.158959
 H   58.499194  -60.595012    6.339417
 H   56.062004  -64.183836   13.214826
 H   54.983490  -60.864433   14.502710
 H   53.698909  -60.684548   16.624375
 H   53.836772  -64.916915   17.119699
 H   55.115963  -65.126390   15.009427
 H   55.619417  -62.535630   18.563525
 H   56.584261  -62.273013   20.833058
 H   52.872700  -62.217035   22.587257
 H   51.730831  -62.477638   20.395838
