46 
5ar7_ligand_ani-2x.xyz
 O   56.148959  -61.157339   12.690031
 C   56.280112  -62.355765   12.527275
 N   56.950681  -62.893307   11.438637
 C   57.547990  -62.158263   10.415901
 C   57.677059  -60.747389   10.254529
 C   58.350506  -60.637088    9.081059
 C   58.849650  -59.475904    8.259626
 C   58.478162  -58.179035    8.978771
 C   60.376764  -59.566511    8.107407
 C   58.194683  -59.504900    6.869015
 N   58.095672  -62.820966    9.426965
 N   55.793435  -63.325669   13.380350
 C   55.077239  -63.129519   14.579059
 C   54.580215  -61.884513   14.975661
 C   53.873677  -61.779033   16.166640
 C   53.664889  -62.898427   16.959296
 C   54.146365  -64.141270   16.572296
 C   54.850969  -64.253393   15.381966
 O   52.940362  -62.775153   18.132817
 C   53.626515  -62.515020   19.283915
 C   55.006231  -62.339524   19.354357
 C   55.557642  -62.077504   20.606242
 N   54.863094  -61.982472   21.738772
 C   53.541843  -62.154487   21.642251
 C   52.877251  -62.419689   20.454522
 O   58.604662  -61.854567    8.578810
 H   56.991758  -63.892070   11.291551
 H   57.309318  -59.991556   10.929096
 H   58.936967  -58.141114    9.972027
 H   58.824639  -57.309681    8.408523
 H   57.392917  -58.098941    9.098299
 H   60.745584  -58.711506    7.529393
 H   60.864303  -59.556828    9.088358
 H   60.664432  -60.486293    7.589759
 H   57.103903  -59.449887    6.954086
 H   58.538944  -58.649664    6.276384
 H   58.451756  -60.424228    6.334692
 H   56.029731  -64.288031   13.193445
 H   54.753527  -61.016106   14.355785
 H   53.485867  -60.820312   16.499928
 H   53.970301  -65.002136   17.210483
 H   55.233042  -65.224539   15.076814
 H   55.640548  -62.401222   18.476178
 H   56.633198  -61.935031   20.698416
 H   52.981295  -62.075024   22.572707
 H   51.800240  -62.552324   20.419504
