31 
5auu_ligand_xtb.xyz
 C  -25.569034    5.637801   -9.075979
 O  -27.640152    6.701447   -9.379273
 C  -26.743936    5.782948   -9.804391
 O  -26.287947    3.330975  -12.434055
 C  -26.980448    5.004403  -10.932895
 O  -23.986067    2.213941  -12.025788
 C  -26.046739    4.067093  -11.352316
 O  -23.499361    4.593787   -8.747645
 C  -24.846256    3.908048  -10.619552
 O  -18.603622    1.584231   -7.210125
 C  -24.629970    4.703968   -9.486842
 O  -18.072559    3.771827   -5.705259
 C  -23.844037    2.937588  -11.031360
 C  -22.674442    2.898030  -10.185350
 C  -22.551666    3.702574   -9.101227
 C  -21.386843    3.719631   -8.211321
 C  -20.525665    2.625236   -8.125970
 C  -19.427182    2.655971   -7.286844
 C  -19.176847    3.802133   -6.514679
 C  -20.033563    4.885659   -6.594265
 C  -21.132547    4.846133   -7.431720
 H  -25.395068    6.243151   -8.203490
 H  -28.409278    6.706177   -9.963079
 H  -25.501665    2.728956  -12.561262
 H  -27.892267    5.114682  -11.501091
 H  -17.900120    1.787281   -6.577840
 H  -18.001796    4.601595   -5.220924
 H  -21.889248    2.214684  -10.458712
 H  -20.702233    1.724716   -8.689188
 H  -19.838140    5.765522   -5.996645
 H  -21.792200    5.696412   -7.490212
