31 
5auu_ligand_ani-2x.xyz
 C  -25.553767    5.660497   -9.094088
 O  -27.637717    6.692961   -9.360081
 C  -26.747120    5.774128   -9.805652
 O  -26.320120    3.305444  -12.411482
 C  -27.010504    4.981396  -10.923714
 O  -23.984908    2.214941  -12.047751
 C  -26.061281    4.051882  -11.343070
 O  -23.468380    4.647455   -8.817251
 C  -24.845188    3.910050  -10.638523
 O  -18.611700    1.581335   -7.187746
 C  -24.628550    4.726201   -9.528052
 O  -18.078188    3.721047   -5.691058
 C  -23.834986    2.943921  -11.054244
 C  -22.662134    2.905169  -10.214397
 C  -22.530156    3.713926   -9.135215
 C  -21.376245    3.740429   -8.209699
 C  -20.521975    2.634917   -8.121312
 C  -19.432325    2.657364   -7.269254
 C  -19.183220    3.800829   -6.494362
 C  -20.025779    4.897911   -6.572781
 C  -21.124635    4.868341   -7.424202
 H  -25.355057    6.281993   -8.231259
 H  -28.418225    6.679736   -9.928052
 H  -25.532055    2.718621  -12.550770
 H  -27.937729    5.068454  -11.481648
 H  -17.914684    1.790014   -6.548112
 H  -17.978068    4.541392   -5.192782
 H  -21.879678    2.216889  -10.500066
 H  -20.706299    1.729115   -8.692865
 H  -19.828507    5.779631   -5.965137
 H  -21.791723    5.720612   -7.484677
