30 
5auv_ligand_xtb.xyz
 C  -25.384229    4.189138  -11.763800
 C  -26.048286    5.235846  -11.164073
 C  -25.807226    5.546376   -9.826740
 O  -26.485018    6.582167   -9.275262
 C  -24.884153    4.794041   -9.107756
 C  -24.218231    3.748953   -9.714013
 C  -24.461400    3.423441  -11.048287
 C  -23.747625    2.301963  -11.666232
 O  -22.607609    1.976457  -11.012405
 C  -24.165445    1.630155  -12.759743
 C  -23.424597    0.514387  -13.335693
 O  -23.808982   -0.080354  -14.326322
 C  -22.191381    0.199200  -12.592599
 C  -21.848270    0.950762  -11.461279
 C  -20.696924    0.686842  -10.727710
 C  -19.861527   -0.345237  -11.119286
 O  -18.747532   -0.581605  -10.387975
 C  -20.180125   -1.107561  -12.240543
 C  -21.326893   -0.848535  -12.975714
 O  -21.639916   -1.577852  -14.056337
 H  -25.569525    3.975949  -12.804190
 H  -26.758586    5.833639  -11.712252
 H  -26.226291    6.695642   -8.352304
 H  -24.689876    5.030631   -8.069798
 H  -23.506490    3.168354   -9.148305
 H  -25.090154    1.890502  -13.246115
 H  -20.456488    1.281652   -9.863633
 H  -18.252219   -1.320495  -10.762444
 H  -19.523640   -1.914784  -12.544872
 H  -20.975762   -2.260474  -14.215719
