30 
5auv_ligand_aiqm1.xyz
 C  -25.401273    4.181905  -11.754803
 C  -26.061017    5.239067  -11.146474
 C  -25.788718    5.548811   -9.815364
 O  -26.467998    6.592926   -9.266556
 C  -24.851617    4.805187   -9.100651
 C  -24.191888    3.751641   -9.717989
 C  -24.461640    3.419122  -11.046981
 C  -23.775832    2.285218  -11.680470
 O  -22.641906    1.932499  -11.012002
 C  -24.188029    1.625691  -12.781354
 C  -23.441561    0.511449  -13.352892
 O  -23.832837   -0.078806  -14.351553
 C  -22.203942    0.181663  -12.619780
 C  -21.864751    0.914494  -11.473815
 C  -20.728927    0.675637  -10.712241
 C  -19.884353   -0.345857  -11.113846
 O  -18.780603   -0.557333  -10.349471
 C  -20.162666   -1.111082  -12.246440
 C  -21.310259   -0.849051  -12.990722
 O  -21.590612   -1.580150  -14.088740
 H  -25.611062    3.963369  -12.793391
 H  -26.783823    5.832397  -11.688819
 H  -26.189049    6.706239   -8.355574
 H  -24.635377    5.049384   -8.066765
 H  -23.460335    3.176619   -9.166788
 H  -25.105723    1.900983  -13.277464
 H  -20.513359    1.269748   -9.838051
 H  -18.269693   -1.280750  -10.718161
 H  -19.489626   -1.908465  -12.549355
 H  -20.895924   -2.233357  -14.204890
