30 
5auv_ligand_ani-2x.xyz
 C  -25.384464    4.185913  -11.751086
 C  -26.040604    5.254688  -11.164836
 C  -25.785629    5.572699   -9.829978
 O  -26.460610    6.627449   -9.302165
 C  -24.868226    4.821951   -9.094689
 C  -24.211517    3.758059   -9.694797
 C  -24.463204    3.418857  -11.028809
 C  -23.778900    2.267077  -11.658954
 O  -22.668095    1.886955  -10.972985
 C  -24.194562    1.606795  -12.758622
 C  -23.467129    0.482530  -13.335435
 O  -23.873459   -0.114827  -14.316311
 C  -22.208834    0.165728  -12.607519
 C  -21.874671    0.886075  -11.456444
 C  -20.734095    0.649022  -10.702091
 C  -19.869656   -0.350928  -11.117494
 O  -18.760753   -0.565509  -10.368741
 C  -20.147805   -1.096895  -12.266024
 C  -21.301017   -0.840436  -12.999981
 O  -21.573714   -1.553745  -14.109396
 H  -25.580435    3.963730  -12.797103
 H  -26.755166    5.852105  -11.722607
 H  -26.197696    6.743607   -8.380480
 H  -24.665085    5.071363   -8.053630
 H  -23.493331    3.175259   -9.127643
 H  -25.120121    1.874741  -13.248681
 H  -20.532969    1.235201   -9.815311
 H  -18.243522   -1.281154  -10.759573
 H  -19.464026   -1.881265  -12.590326
 H  -20.865105   -2.195845  -14.249689
