32 
5auw_ligand_aiqm1.xyz
 C  -26.784756    4.756430  -11.106186
 C  -25.825955    3.851272  -11.536032
 C  -24.621520    3.681576  -10.804812
 C  -24.421629    4.443400   -9.650037
 C  -25.366229    5.355617   -9.202090
 C  -26.537793    5.492531   -9.945943
 C  -23.616059    2.757871  -11.225299
 C  -22.433586    2.667807  -10.387093
 C  -22.306408    3.430976   -9.272149
 C  -21.186948    3.457836   -8.317475
 C  -20.957227    4.601264   -7.548617
 C  -19.897785    4.651023   -6.648546
 C  -19.060355    3.553858   -6.496569
 C  -19.295691    2.403728   -7.255276
 C  -20.343192    2.347479   -8.155038
 O  -23.288725    4.323194   -8.924768
 O  -23.695625    2.047073  -12.241446
 O  -18.421763    1.370619   -7.026103
 O  -18.030050    3.600750   -5.618454
 O  -21.490531    1.789870  -10.808411
 O  -27.508170    6.361925   -9.571315
 O  -26.046972    3.142679  -12.642496
 H  -27.703951    4.890217  -11.657635
 H  -25.175665    5.925512   -8.303935
 H  -21.609773    5.455976   -7.659070
 H  -19.707011    5.535252   -6.055488
 H  -20.503580    1.447532   -8.732645
 H  -18.604159    0.652722   -7.635463
 H  -17.559959    2.761401   -5.669353
 H  -21.854964    1.427746  -11.632154
 H  -27.242745    6.812745   -8.767086
 H  -25.259625    2.572318  -12.777414
