31 
5aux_ligand_ani-2x.xyz
 C  -20.005812   -1.054775  -12.252705
 C  -21.157072   -0.825139  -12.992620
 C  -22.077943    0.179536  -12.595006
 C  -21.788798    0.910601  -11.441094
 C  -20.646892    0.691879  -10.684850
 C  -19.759834   -0.296510  -11.107950
 C  -23.289986    0.454016  -13.341742
 C  -24.110861    1.541452  -12.826759
 C  -23.741043    2.235088  -11.715981
 C  -24.479247    3.358666  -11.119512
 C  -25.305819    4.192880  -11.884272
 C  -25.967974    5.260226  -11.301988
 C  -25.830131    5.507209   -9.935866
 C  -25.016184    4.685610   -9.155529
 C  -24.343712    3.629677   -9.747975
 O  -22.636905    1.870467  -10.988834
 O  -23.650247   -0.161808  -14.361808
 O  -26.512426    6.563549   -9.422950
 O  -25.248660    1.799311  -13.506101
 O  -18.618879   -0.573365  -10.431349
 O  -21.368082   -1.569473  -14.078057
 H  -19.304744   -1.819879  -12.562094
 H  -20.476164    1.287114   -9.793978
 H  -25.424805    4.007426  -12.945270
 H  -26.606153    5.913343  -11.889750
 H  -24.903482    4.876564   -8.088660
 H  -23.699714    2.995694   -9.147007
 H  -26.335364    6.626189   -8.476018
 H  -25.276276    1.154674  -14.233744
 H  -18.557455    0.008455   -9.663565
 H  -22.220134   -1.288578  -14.475266
