31 
5aux_ligand_xtb.xyz
 C  -20.077962   -1.121781  -12.188126
 C  -21.148700   -0.811961  -13.006980
 C  -22.040077    0.222713  -12.621247
 C  -21.823602    0.913280  -11.420567
 C  -20.742616    0.590177  -10.608072
 C  -19.877540   -0.424457  -10.996859
 C  -23.164888    0.582476  -13.434910
 C  -24.003581    1.659408  -12.930272
 C  -23.722534    2.283267  -11.745618
 C  -24.476687    3.370055  -11.129244
 C  -25.625428    3.908928  -11.717644
 C  -26.314381    4.934283  -11.109394
 C  -25.878044    5.455013   -9.893013
 C  -24.735991    4.926380   -9.298748
 C  -24.047405    3.900148   -9.908494
 O  -22.640681    1.901019  -11.012737
 O  -23.464163    0.045185  -14.520865
 O  -26.586839    6.463779   -9.330211
 O  -25.048945    1.958755  -13.735054
 O  -18.814467   -0.774124  -10.241765
 O  -21.340589   -1.477234  -14.144196
 H  -19.393739   -1.904263  -12.468024
 H  -20.592391    1.133052   -9.687335
 H  -25.978663    3.520946  -12.656529
 H  -27.200159    5.351365  -11.560796
 H  -24.388872    5.324237   -8.353889
 H  -23.164195    3.500715   -9.436202
 H  -26.181078    6.730944   -8.496162
 H  -24.961549    1.336031  -14.489746
 H  -18.774279   -0.229185   -9.445774
 H  -22.150755   -1.109048  -14.579825
