30 
5auz_ligand_dft.xyz
 C    3.440263   -1.397604    0.159574
 C    4.405112   -0.402508    0.007418
 O    5.695849   -0.801350    0.028906
 C    4.055174    0.940155   -0.157961
 C    2.715104    1.308363   -0.173703
 O    2.400965    2.592348   -0.331962
 C    1.703540    0.321278   -0.023180
 C    0.294882    0.676405   -0.043131
 O   -0.085248    1.851235   -0.172141
 C   -0.639049   -0.447896    0.098574
 C   -0.122078   -1.682540    0.274746
 O    1.184697   -1.996153    0.295166
 C    2.111584   -1.011005    0.139780
 C   -2.105086   -0.253781    0.040925
 C   -2.728079    0.803985    0.718113
 C   -4.104520    0.955463    0.693491
 C   -4.894842    0.049517   -0.016353
 O   -6.238886    0.248379   -0.004659
 C   -4.292517   -1.001268   -0.705639
 C   -2.909256   -1.140725   -0.677869
 H    3.722170   -2.434385    0.289673
 H    6.270459   -0.034125   -0.083631
 H    4.809060    1.712776   -0.274817
 H    1.411584    2.649603   -0.313615
 H   -0.730625   -2.566393    0.427517
 H   -2.122897    1.518395    1.263607
 H   -4.587334    1.772587    1.218741
 H   -6.666128   -0.434495   -0.535312
 H   -4.897491   -1.701746   -1.277302
 H   -2.449194   -1.944921   -1.246054
