30 
5auz_ligand_xtb.xyz
 C  -21.148622   -0.668154  -12.325019
 C  -19.892075   -0.966209  -11.811614
 O  -19.240498   -2.035808  -12.316112
 C  -19.333972   -0.178545  -10.809532
 C  -20.018284    0.917114  -10.303176
 O  -19.457184    1.650514   -9.346197
 C  -21.302987    1.235198  -10.814188
 C  -22.038672    2.377987  -10.299398
 O  -21.581549    3.108938   -9.413593
 C  -23.344358    2.590447  -10.928449
 C  -23.748780    1.732913  -11.891989
 O  -23.062890    0.682437  -12.351164
 C  -21.840952    0.424133  -11.826014
 C  -24.185572    3.725417  -10.526191
 C  -24.298256    4.093943   -9.186580
 C  -25.090251    5.158216   -8.811540
 C  -25.786346    5.885691   -9.772305
 O  -26.556028    6.927848   -9.362815
 C  -25.674003    5.529921  -11.111882
 C  -24.881955    4.461160  -11.481752
 H  -21.577504   -1.278798  -13.100250
 H  -18.384303   -2.137899  -11.881255
 H  -18.357501   -0.403997  -10.406931
 H  -20.095045    2.384099   -9.122875
 H  -24.709506    1.821594  -12.381014
 H  -23.762797    3.539983   -8.433006
 H  -25.183304    5.445704   -7.776632
 H  -26.971736    7.349670  -10.124579
 H  -26.204366    6.097616  -11.865684
 H  -24.786199    4.209667  -12.527762
