30 
5av0_ligand_ani-2x.xyz
 C  -24.907782    5.071659   -8.816751
 C  -25.975342    5.448495   -9.650062
 C  -26.091389    4.930348  -10.931901
 C  -23.972514    4.176754   -9.283903
 C  -24.061585    3.633690  -10.575224
 C  -25.125200    4.029457  -11.376275
 O  -25.278331    3.550290  -12.645456
 C  -24.345133    2.711194  -13.137196
 C  -23.269357    2.239392  -12.472641
 C  -23.061983    2.668751  -11.068863
 C  -22.339399    1.289898  -13.140226
 C  -21.829257    0.180530  -12.452561
 C  -21.032845   -0.749440  -13.093963
 C  -20.694074   -0.565755  -14.441858
 C  -21.163080    0.542132  -15.126967
 C  -21.989303    1.459671  -14.483620
 O  -19.891816   -1.537233  -14.977005
 O  -20.572140   -1.826785  -12.412474
 O  -26.869091    6.331311   -9.139477
 O  -22.140006    2.281658  -10.366267
 H  -24.846826    5.496202   -7.820053
 H  -26.905559    5.204515  -11.597297
 H  -23.139324    3.867042   -8.659656
 H  -24.599303    2.425825  -14.154052
 H  -22.049437    0.052143  -11.398375
 H  -20.895768    0.690122  -16.171294
 H  -22.325199    2.329474  -15.039749
 H  -19.705920   -1.330778  -15.901132
 H  -20.034031   -2.354669  -13.020642
 H  -27.550504    6.511308   -9.799658
