30 
5av0_ligand_xtb.xyz
 C  -24.864583    5.029706   -8.836517
 C  -25.930509    5.443258   -9.647454
 C  -26.056627    4.943912  -10.932261
 C  -23.949495    4.130447   -9.318375
 C  -24.055649    3.610486  -10.614047
 C  -25.121718    4.029961  -11.414492
 O  -25.293439    3.572470  -12.678374
 C  -24.400051    2.692841  -13.156089
 C  -23.327929    2.207151  -12.497566
 C  -23.063890    2.646926  -11.115115
 C  -22.415020    1.259277  -13.151855
 C  -21.909229    0.171589  -12.445713
 C  -21.050788   -0.727348  -13.055022
 C  -20.681290   -0.531683  -14.392830
 C  -21.175784    0.553880  -15.092582
 C  -22.039580    1.443367  -14.479021
 O  -19.823389   -1.454768  -14.944289
 O  -20.578140   -1.793648  -12.363538
 O  -26.810094    6.330930   -9.132490
 O  -22.117652    2.272265  -10.446213
 H  -24.790708    5.434996   -7.840717
 H  -26.869693    5.247558  -11.575962
 H  -23.119910    3.796059   -8.714686
 H  -24.651370    2.389825  -14.163624
 H  -22.171931    0.009984  -11.414247
 H  -20.879836    0.705437  -16.122237
 H  -22.401933    2.297143  -15.030542
 H  -19.629890   -1.205917  -15.854082
 H  -19.984760   -2.287636  -12.946041
 H  -27.496612    6.538731   -9.778619
