30 
5av0_ligand_aiqm1.xyz
 C  -24.885818    5.075747   -8.824299
 C  -25.958499    5.440647   -9.653993
 C  -26.085799    4.924956  -10.933906
 C  -23.947025    4.185732   -9.298166
 C  -24.044885    3.641500  -10.589539
 C  -25.121299    4.028336  -11.386193
 O  -25.288992    3.551539  -12.652233
 C  -24.367017    2.686992  -13.130154
 C  -23.289203    2.225164  -12.465758
 C  -23.044463    2.691316  -11.086691
 C  -22.378461    1.266103  -13.140992
 C  -21.898952    0.140292  -12.461562
 C  -21.066024   -0.766603  -13.095478
 C  -20.701327   -0.556415  -14.428882
 C  -21.161889    0.555833  -15.111218
 C  -22.004635    1.465326  -14.471703
 O  -19.877723   -1.510124  -14.971576
 O  -20.616948   -1.859886  -12.423539
 O  -26.858820    6.320015   -9.142148
 O  -22.092634    2.340233  -10.404883
 H  -24.821145    5.500581   -7.833219
 H  -26.905743    5.195472  -11.587736
 H  -23.106476    3.879045   -8.691652
 H  -24.606266    2.386979  -14.140579
 H  -22.138968   -0.023776  -11.420121
 H  -20.861357    0.720487  -16.140282
 H  -22.343528    2.339796  -15.011227
 H  -19.620565   -1.240924  -15.855347
 H  -20.023537   -2.340579  -13.010307
 H  -27.543505    6.493415   -9.791214
