55 
5ax9_ligand_ani-2x.xyz
 C  -13.475734  -55.847604  -28.559737
 C  -14.200509  -56.706037  -29.383366
 C  -15.034589  -57.698228  -28.882298
 C  -15.927355  -60.605767  -31.006240
 C  -17.829317  -59.252471  -30.794907
 C  -15.567924  -59.976327  -29.654403
 C  -15.180345  -57.786319  -27.481250
 C  -14.469073  -56.929366  -26.646348
 C   -7.151702  -54.506378  -31.009866
 C   -7.588911  -53.746236  -28.761320
 C   -8.945044  -54.014540  -28.899294
 C   -8.502295  -54.785240  -31.170704
 C  -10.762902  -52.374244  -26.021300
 C  -11.846915  -54.311857  -26.512622
 C   -9.885413  -53.743449  -27.776514
 C  -16.224087  -58.826606  -25.618795
 C   -9.394865  -54.546171  -30.124680
 C   -6.691259  -53.989078  -29.800136
 C  -10.883561  -54.654008  -27.464374
 N  -11.767838  -53.214877  -25.756151
 C   -9.812936  -52.574694  -27.012214
 C   -5.296386  -53.691466  -29.617038
 O  -10.730893  -54.781271  -30.226525
 C  -11.209889  -55.374491  -31.412722
 C  -13.599452  -55.965721  -27.171836
 O  -16.049941  -58.727287  -27.016053
 N  -15.736494  -58.538459  -29.789367
 O  -16.916626  -59.850346  -31.678663
 C  -17.131901  -58.158142  -29.982724
 N  -12.929219  -55.137277  -26.260153
 N   -4.173673  -53.450140  -29.465245
 H  -12.844428  -55.085387  -29.007236
 H  -14.114033  -56.624023  -30.464187
 H  -16.262355  -61.647058  -30.861827
 H  -15.063033  -60.612736  -31.676661
 H  -18.273903  -60.007766  -30.123177
 H  -18.635551  -58.836331  -31.406758
 H  -14.527492  -60.191552  -29.396363
 H  -16.196020  -60.401893  -28.857202
 H  -14.568095  -56.998688  -25.567978
 H   -6.454852  -54.692695  -31.821848
 H   -7.211348  -53.361382  -27.819058
 H   -8.849709  -55.189968  -32.114229
 H  -10.719910  -51.479767  -25.403924
 H  -15.287323  -59.098867  -25.115599
 H  -16.604648  -57.888577  -25.194544
 H  -16.959245  -59.616962  -25.462421
 H  -10.907611  -55.623526  -27.944431
 H   -9.046742  -51.826894  -27.197247
 H  -11.058111  -54.714069  -32.276885
 H  -10.717688  -56.337843  -31.597648
 H  -12.277473  -55.540830  -31.265567
 H  -17.646356  -58.011203  -29.020495
 H  -17.146991  -57.202438  -30.521359
 H  -13.432538  -54.874150  -25.423010
