30 
5b5g_ligand_xtb.xyz
 C   13.937742  -28.660854    6.717849
 C   13.973202  -26.208200    6.919668
 O   18.953425  -27.622565   -1.535702
 C   18.366259  -27.326661   -0.525447
 O   18.199567  -26.061857   -0.113398
 C   18.764009  -25.061624   -0.948172
 C   17.748630  -28.308185    0.400402
 C   17.839490  -29.669963    0.104451
 C   17.079582  -27.927502    1.556509
 C   16.526533  -28.914955    2.374089
 C   16.684185  -30.247953    1.969736
 N   17.318996  -30.608056    0.873101
 C   15.821391  -28.567226    3.586892
 O   15.709249  -27.243595    3.914882
 C   15.025249  -27.176563    5.062599
 C   14.673130  -26.009875    5.773824
 N   13.636038  -27.452009    7.349556
 O   13.576263  -29.709520    7.208744
 C   14.682002  -28.456021    5.498740
 C   15.204932  -29.347633    4.531634
 H   13.652533  -25.387119    7.541578
 H   19.842562  -25.206805   -1.037470
 H   18.321532  -25.106296   -1.945443
 H   18.543515  -24.109068   -0.473479
 H   18.353511  -29.999272   -0.787747
 H   16.987887  -26.885391    1.820023
 H   16.278667  -31.057217    2.560362
 H   14.944769  -25.030359    5.425136
 H   13.113018  -27.549741    8.211134
 H   15.125132  -30.413915    4.551048
