35 
5boy_ligand_xtb.xyz
 C  -10.401793   26.806011   46.358802
 C   -9.340741   27.727391   46.239822
 C   -8.548806   28.067622   47.310952
 C   -9.899278   26.555518   48.687879
 N   -8.224520   27.613895   49.747917
 C   -9.906197   26.156593   50.046896
 C   -8.459104   26.755636   52.062837
 C   -5.937435   26.422268   53.871029
 C  -12.609700   26.360278   45.141768
 C  -11.241223   26.483787   45.213422
 C  -11.889897   25.980078   43.188536
 C   -9.431364   26.167725   43.480863
 O   -8.984541   26.078587   52.911841
 O   -7.403799   27.568265   52.295164
 C   -6.891832   27.582389   53.626733
 C   -8.873268   26.821464   50.665437
 C   -8.826086   27.474405   48.538429
 C  -10.686143   26.227253   47.583770
 N  -10.790485   26.235243   43.937340
 N  -12.993103   26.055561   43.879790
 H   -9.165207   28.203067   45.286957
 H   -7.743367   28.779184   47.205235
 H   -7.439004   28.201513   49.970229
 H  -10.579623   25.470604   50.518838
 H   -5.523686   26.496734   54.872484
 H   -6.471412   25.479663   53.779562
 H   -5.125230   26.441162   53.147857
 H  -13.330533   26.496470   45.922654
 H  -11.836328   25.740864   42.144744
 H   -8.777351   25.888639   44.306909
 H   -9.352836   25.417587   42.693375
 H   -9.101661   27.128860   43.076121
 H   -6.380388   28.542649   53.723862
 H   -7.731246   27.533487   54.327954
 H  -11.500812   25.526547   47.678991
