55 
5bpa_ligand_dft.xyz
 C  -10.709784   23.446117   48.139112
 C  -10.731154   23.816686   46.803241
 C   -9.621581   24.493845   46.235603
 C   -8.493926   24.791093   46.971571
 C   -9.580658   23.740991   48.917468
 C   -8.481693   24.407891   48.318298
 C   -7.976614   24.023917   50.460950
 C   -9.232769   23.506639   50.283930
 C   -7.092740   24.093743   51.631288
 C   -6.856345   23.565883   53.917794
 C   -7.008509   24.894492   54.635387
 C  -11.932090   23.536398   45.998356
 C  -13.955895   23.300035   45.154062
 C  -13.262848   23.780397   46.275631
 C  -10.762189   22.434423   44.034896
 C  -15.426575   23.314727   44.943574
 O  -16.193172   23.743677   45.797256
 O  -19.704534   16.640395   43.594170
 C  -19.321881   17.395893   44.459703
 O  -19.349717   17.056306   45.764777
 C  -18.783784   18.759267   44.222350
 C  -18.355437   19.584587   45.267215
 C  -17.860993   20.850784   44.992107
 C  -18.713250   19.214113   42.906338
 C  -18.215446   20.483228   42.637293
 C  -17.785087   21.311350   43.673307
 C  -17.227006   22.691605   43.391314
 N  -15.827670   22.823145   43.741531
 N  -13.126407   22.788982   44.246161
 N  -11.905293   22.935276   44.770371
 N   -7.523344   24.565948   49.278046
 O   -5.992008   24.606218   51.591688
 O   -7.640113   23.531715   52.711694
 H  -11.558663   22.924207   48.570643
 H   -9.672888   24.806562   45.196914
 H   -7.654960   25.314887   46.524500
 H   -9.827759   23.021348   51.043273
 H   -7.248059   22.740449   54.514849
 H   -5.811725   23.368069   53.666249
 H   -6.467184   24.864044   55.586408
 H   -6.596629   25.706422   54.030907
 H   -8.062026   25.102699   54.843324
 H  -13.679406   24.257494   47.148969
 H  -11.081543   21.554024   43.477008
 H  -10.384500   23.186727   43.335785
 H   -9.971480   22.162120   44.735465
 H  -19.716236   16.158925   45.795797
 H  -18.415650   19.231871   46.290839
 H  -17.531713   21.500383   45.798241
 H  -19.049943   18.562019   42.107215
 H  -18.161600   20.833224   41.609283
 H  -17.765863   23.439430   43.979430
 H  -17.350174   22.940744   42.332284
 H  -15.120426   22.403778   43.154183
 H   -6.620063   25.004807   49.187958
