55 
5bpa_ligand_ani-2x.xyz
 C  -10.652096   23.593547   48.059637
 C  -10.645718   23.790334   46.686460
 C   -9.504531   24.351881   46.062273
 C   -8.375454   24.696816   46.779469
 C   -9.516641   23.920302   48.814157
 C   -8.386171   24.469499   48.161143
 C   -7.921215   24.311975   50.347607
 C   -9.194482   23.831391   50.203634
 C   -7.030787   24.483423   51.504504
 C   -6.753890   24.230228   53.826899
 C   -7.559634   23.728187   55.003028
 C  -11.857068   23.458634   45.917644
 C  -13.890003   23.254150   45.083677
 C  -13.182822   23.736573   46.191659
 C  -10.751785   22.230093   43.980168
 C  -15.356376   23.322662   44.877936
 O  -16.102169   23.815184   45.714668
 O  -19.563284   16.650778   43.865369
 C  -19.337761   17.505002   44.692759
 O  -19.567755   17.301664   46.006756
 C  -18.794207   18.853990   44.392610
 C  -18.552155   19.800844   45.391753
 C  -18.042607   21.045572   45.051852
 C  -18.522250   19.163365   43.059522
 C  -18.015614   20.411537   42.725487
 C  -17.774867   21.364430   43.716367
 C  -17.191859   22.715006   43.373013
 N  -15.778735   22.813500   43.696027
 N  -13.076535   22.696085   44.191145
 N  -11.850394   22.824325   44.709681
 N   -7.433281   24.697186   49.117392
 O   -5.909844   24.942224   51.404646
 O   -7.583475   24.085015   52.656729
 H  -11.533919   23.170790   48.533417
 H   -9.526542   24.526114   44.989959
 H   -7.508686   25.124907   46.286322
 H   -9.833679   23.455811   50.992403
 H   -5.834234   23.656105   53.681835
 H   -6.477151   25.282848   53.935746
 H   -6.973899   23.815936   55.923272
 H   -8.475655   24.313822   55.119389
 H   -7.829120   22.677657   54.863870
 H  -13.596431   24.245752   47.049784
 H  -11.101056   21.281601   43.570480
 H  -10.438409   22.878537   43.155438
 H   -9.911112   22.051746   44.652837
 H  -19.916049   16.397386   46.069661
 H  -18.766450   19.554733   46.426707
 H  -17.850767   21.783993   45.826147
 H  -18.717181   18.411405   42.301332
 H  -17.804259   20.652466   41.685625
 H  -17.696050   23.502411   43.939544
 H  -17.316472   22.926727   42.306217
 H  -15.107775   22.327006   43.117336
 H   -6.508637   25.080844   49.003008
