55 
5bpa_ligand_aiqm1.xyz
 C  -10.753240   23.429209   48.209122
 C  -10.787294   23.781283   46.867708
 C   -9.685184   24.454127   46.278760
 C   -8.550531   24.761787   47.001481
 C   -9.605606   23.722955   48.972290
 C   -8.517791   24.384771   48.351808
 C   -7.975261   24.023089   50.485969
 C   -9.237553   23.502286   50.336855
 C   -7.069534   24.105679   51.638960
 C   -6.754403   23.608424   53.913422
 C   -6.861897   24.953764   54.595857
 C  -11.989301   23.494795   46.063315
 C  -14.012663   23.301429   45.204165
 C  -13.318373   23.780069   46.323030
 C  -10.842602   22.268952   44.155171
 C  -15.473795   23.355711   44.961326
 O  -16.256645   23.819878   45.777876
 O  -19.548050   16.632854   43.448017
 C  -19.263834   17.407780   44.328058
 O  -19.386356   17.090087   45.637329
 C  -18.751706   18.784612   44.120167
 C  -18.439440   19.627836   45.189672
 C  -17.958998   20.908060   44.942722
 C  -18.585535   19.227603   42.806308
 C  -18.104819   20.507579   42.567275
 C  -17.788699   21.358764   43.628295
 C  -17.235485   22.743783   43.376253
 N  -15.842169   22.858589   43.757202
 N  -13.186455   22.748105   44.312922
 N  -11.966763   22.877481   44.843929
 N   -7.539514   24.553347   49.290630
 O   -5.974433   24.615130   51.564733
 O   -7.592611   23.554409   52.737654
 H  -11.603730   22.930454   48.656471
 H   -9.743880   24.747431   45.238321
 H   -7.719972   25.281351   46.541459
 H   -9.810025   23.029600   51.116480
 H   -7.131646   22.809305   54.547167
 H   -5.729565   23.389837   53.618658
 H   -6.282030   24.939180   55.519043
 H   -6.470678   25.740828   53.955245
 H   -7.900436   25.176519   54.840424
 H  -13.739997   24.270967   47.180731
 H  -11.063215   21.216662   43.989900
 H  -10.694980   22.754627   43.193294
 H   -9.952998   22.364865   44.767757
 H  -19.723431   16.186481   45.661574
 H  -18.573245   19.273110   46.202445
 H  -17.710674   21.570546   45.762154
 H  -18.833715   18.557720   41.993974
 H  -17.971089   20.854782   41.549496
 H  -17.782168   23.479764   43.960367
 H  -17.337215   22.993418   42.316709
 H  -15.123384   22.408068   43.212652
 H   -6.644389   24.994257   49.183398
