33 
5bpp_ligand_aiqm1.xyz
 C   34.974020   91.402544    0.523067
 C   33.694020   90.663116    0.206799
 C   32.484274   91.335602    0.089251
 C   31.292631   90.658737   -0.194194
 C   31.318464   89.273903   -0.360845
 C   32.532231   88.587123   -0.240611
 C   33.701743   89.272639    0.041910
 C   35.520223   90.944041    1.859721
 O   36.300612   90.025360    1.987344
 N   35.123303   91.656749    2.980735
 O   33.901873   92.345697    2.885298
 O   30.228138   88.508058   -0.634058
 C   28.990118   89.184624   -0.806697
 C   27.938878   88.153606   -1.152182
 C   27.656450   87.162351   -0.030308
 C   26.558648   86.175812   -0.410777
 H   34.798335   92.478748    0.529683
 H   35.737145   91.164060   -0.217509
 H   32.455815   92.410947    0.233985
 H   30.371625   91.218597   -0.273289
 H   32.530464   87.512750   -0.366502
 H   34.632577   88.728075    0.149765
 H   35.160926   91.105904    3.827546
 H   34.121930   93.247930    3.133668
 H   29.079883   89.922670   -1.610187
 H   28.725170   89.709891    0.117685
 H   28.254801   87.615114   -2.050357
 H   27.020742   88.692107   -1.405384
 H   27.363990   87.710957    0.869932
 H   28.571814   86.622877    0.219753
 H   25.626388   86.697820   -0.639326
 H   26.843634   85.603647   -1.295389
 H   26.358935   85.470442    0.395771
