37 
5buj_ligand_ani-2x.xyz
 C  -17.447350    1.146455   14.768980
 C  -16.272154    1.544037   14.151614
 C  -17.556757    2.322873   16.955671
 C  -18.299284    2.873073   17.993830
 C  -20.260848    2.308049   17.004792
 C  -19.617205    1.724868   15.921138
 C  -12.943845    2.289757   14.269620
 C  -12.695342    2.958877   15.522723
 C  -11.541005    2.708885   16.183004
 C  -10.752300    1.157968   14.478271
 C  -11.980026    1.440854   13.774574
 N  -17.826920    0.016936   14.117465
 C  -16.039550    0.571695   13.156875
 N  -16.975258   -0.361486   13.145427
 C  -15.383613    2.763378   14.272094
 N  -14.117225    2.564500   13.573911
 C  -14.301147    2.039845   12.226960
 C  -14.855789    0.607533   12.234139
 C  -18.219614    1.731648   15.882829
 N  -19.632168    2.877738   18.035790
 N  -10.616595    1.838014   15.692473
 O   -9.865938    0.404687   14.102423
 H  -16.472693    2.329709   16.998248
 H  -17.789852    3.333643   18.837929
 H  -21.349047    2.315103   17.046671
 H  -20.205365    1.288809   15.117628
 H  -13.391077    3.687551   15.919774
 H  -11.297474    3.175888   17.131603
 H  -12.099254    0.917216   12.837192
 H  -18.601447   -0.591698   14.344223
 H  -15.190727    3.000762   15.319266
 H  -15.883276    3.644458   13.838705
 H  -13.368717    2.124437   11.660704
 H  -15.034347    2.690761   11.733255
 H  -15.142118    0.295232   11.226617
 H  -14.095556   -0.095236   12.593982
 H   -9.754115    1.650183   16.187600
