65 
5byy_ligand_aiqm1.xyz
 C    3.597471  -49.953398  -11.151283
 C    3.817287  -48.335819   -9.416576
 C    3.811275  -49.326379   -8.439464
 C    3.943403  -48.977177   -7.084513
 C    4.087728  -47.630810   -6.752909
 C    4.115427  -46.645898   -7.735440
 C    3.964405  -46.976760   -9.079585
 C    3.628387  -44.755973  -10.183644
 C    2.855169  -42.877385   -9.151502
 C    3.214926  -41.087374   -7.628257
 C    4.749258  -38.840132   -6.897575
 C    4.069180  -38.870682   -8.106544
 C    3.310561  -39.978868   -8.491601
 C    2.564104  -39.811714   -9.777791
 C    1.484759  -40.652319  -11.749692
 C    3.483289  -51.276167   -6.427047
 C    4.405147  -52.171319   -4.274079
 C    4.858649  -50.766076   -3.941895
 O    2.206804  -38.698736  -10.134973
 N    2.294936  -40.906358  -10.558430
 C    2.848023  -42.192914  -10.381436
 C    3.311252  -42.916963  -11.468660
 N    3.710101  -44.190364  -11.394153
 C    4.643960  -39.928461   -6.039107
 C    3.882993  -41.038784   -6.397400
 N    2.444316  -42.231872   -7.974447
 C    2.014615  -43.111668   -6.892518
 N    3.235712  -44.147927   -9.051011
 N    4.014753  -46.060579  -10.143443
 O    3.712905  -48.591956  -10.755086
 C    3.507762  -49.975479  -12.658064
 N    3.901097  -49.937700   -6.045596
 C    5.108208  -49.976020   -5.218126
 O    4.114299  -52.820572   -3.037471
 C    3.190836  -52.109769   -5.186653
 H    2.702840  -50.391673  -10.699463
 H    4.469871  -50.513639  -10.801167
 H    3.696185  -50.360421   -8.723437
 H    4.176487  -47.350217   -5.712037
 H    4.233010  -45.608322   -7.461599
 H    5.335841  -37.973907   -6.623720
 H    4.095692  -38.023952   -8.778362
 H    0.681803  -39.972037  -11.476418
 H    2.076841  -40.177298  -12.536667
 H    1.068999  -41.592541  -12.105956
 H    4.259045  -51.775393   -7.031836
 H    2.582284  -51.201337   -7.034713
 H    5.214555  -52.708763   -4.788664
 H    5.769509  -50.805978   -3.341794
 H    4.075893  -50.285082   -3.349871
 H    3.341136  -42.468679  -12.454732
 H    5.153888  -39.921948   -5.083949
 H    3.807843  -41.868486   -5.709848
 H    1.266589  -43.796930   -7.285544
 H    2.834700  -43.704831   -6.473039
 H    1.566550  -42.504253   -6.109580
 H    4.141198  -46.473731  -11.053974
 H    2.640354  -49.411570  -12.999634
 H    4.403719  -49.545124  -13.104402
 H    3.409595  -51.005757  -13.001111
 H    5.940051  -50.432089   -5.781540
 H    5.405445  -48.956661   -4.977205
 H    3.860888  -53.726537   -3.225443
 H    2.886386  -53.119102   -5.483680
 H    2.365906  -51.655970   -4.630043
