61 
5c1x_ligand_ani-2x.xyz
 O    0.296362   -1.106866    1.769426
 C    0.877847   -1.831817    0.970660
 N    0.337094   -2.862032    0.287798
 C    1.207106   -3.426789   -0.725180
 C    2.592786   -3.057954   -0.175025
 C    2.355682   -1.730964    0.568069
 C    2.666294   -0.501409   -0.300958
 C    2.634278    0.844097    0.446925
 C    3.544556    1.874304   -0.234857
 O    3.453939    1.866977   -1.633579
 N    1.270269    1.334315    0.667046
 C    0.493738    2.009052   -0.212658
 O    0.899771    2.586615   -1.219084
 C   -1.002024    2.068290    0.152098
 C   -1.263742    2.997438    1.349508
 C   -0.667636    4.376708    1.173154
 C   -1.260163    5.296648    0.305668
 C   -0.706907    6.560146    0.122895
 C    0.456500    6.916142    0.800450
 C    1.064075    6.003344    1.657043
 C    0.504310    4.741211    1.837271
 N   -1.585822    0.757274    0.376284
 C   -1.877249    0.005531   -0.726900
 O   -1.898875    0.417078   -1.870067
 O   -2.172082   -1.270401   -0.380643
 C   -2.576308   -2.092295   -1.500637
 C   -2.618064   -3.532202   -1.059692
 C   -3.423250   -3.915942    0.012046
 C   -3.469093   -5.244661    0.423257
 C   -2.702308   -6.207468   -0.230105
 C   -1.889911   -5.832513   -1.296567
 C   -1.850077   -4.502316   -1.708470
 H   -0.651416   -3.061599    0.355309
 H    1.037134   -2.969102   -1.715295
 H    1.045966   -4.506640   -0.815087
 H    3.346970   -2.970172   -0.962829
 H    2.927611   -3.828443    0.526825
 H    2.960346   -1.666255    1.478876
 H    1.993663   -0.455603   -1.168949
 H    3.678298   -0.625946   -0.708505
 H    3.030819    0.689788    1.460823
 H    4.584333    1.628468    0.018443
 H    3.323005    2.867280    0.181351
 H    2.554292    2.196660   -1.819251
 H    0.775531    0.798043    1.371056
 H   -1.483606    2.480568   -0.737439
 H   -0.863207    2.529395    2.258038
 H   -2.350180    3.057456    1.478276
 H   -2.166938    5.018928   -0.231156
 H   -1.183950    7.268141   -0.550719
 H    0.889706    7.903232    0.658187
 H    1.973764    6.274923    2.187515
 H    0.984347    4.020750    2.498085
 H   -1.336716    0.227147    1.203783
 H   -1.862185   -1.951999   -2.315460
 H   -3.557323   -1.745705   -1.839425
 H   -4.012346   -3.162874    0.532140
 H   -4.104960   -5.526824    1.258970
 H   -2.736297   -7.244828    0.091808
 H   -1.285556   -6.578002   -1.807621
 H   -1.202302   -4.206028   -2.533327
