61 
5c1x_ligand_aiqm1.xyz
 O    0.045444   -0.761268    1.965821
 C    0.640974   -1.562672    1.246935
 N    0.075609   -2.614284    0.632217
 C    0.981746   -3.341553   -0.243302
 C    2.342782   -2.982468    0.367345
 C    2.136280   -1.560129    0.926568
 C    2.567964   -0.475679   -0.067661
 C    2.523804    0.951117    0.491923
 C    3.428246    1.910396   -0.299671
 O    3.431938    1.695870   -1.690692
 N    1.152441    1.449369    0.633848
 C    0.359212    1.827018   -0.390515
 O    0.742977    2.005487   -1.541491
 C   -1.119620    2.036814   -0.024312
 C   -1.297669    2.941513    1.198790
 C   -0.549919    4.245953    1.073097
 C   -0.960562    5.219834    0.158269
 C   -0.252325    6.410805    0.024773
 C    0.877547    6.648106    0.802717
 C    1.296227    5.685368    1.715832
 C    0.586198    4.493508    1.848230
 N   -1.759798    0.745264    0.205027
 C   -2.293536    0.064733   -0.842342
 O   -2.653665    0.524344   -1.898882
 O   -2.408289   -1.249043   -0.521388
 C   -2.939755   -2.061626   -1.575713
 C   -2.621142   -3.488463   -1.236623
 C   -3.118155   -4.063227   -0.065456
 C   -2.799377   -5.379711    0.263937
 C   -1.980473   -6.134079   -0.573370
 C   -1.483913   -5.569997   -1.746338
 C   -1.801380   -4.250438   -2.071799
 H   -0.924718   -2.727024    0.612880
 H    0.903094   -3.003261   -1.279031
 H    0.779033   -4.411012   -0.209660
 H    3.147502   -3.026115   -0.363544
 H    2.579396   -3.676026    1.175548
 H    2.691117   -1.405739    1.854315
 H    1.993854   -0.526838   -0.996352
 H    3.605709   -0.676748   -0.342252
 H    2.923061    0.927848    1.511572
 H    4.451891    1.746683    0.044692
 H    3.141204    2.938052   -0.054890
 H    2.523392    1.863477   -1.973559
 H    0.672403    1.108209    1.454049
 H   -1.586518    2.483577   -0.897057
 H   -0.966705    2.402081    2.089482
 H   -2.368670    3.123817    1.317505
 H   -1.833006    5.043079   -0.462130
 H   -0.580870    7.150601   -0.693399
 H    1.428977    7.572374    0.693982
 H    2.174793    5.857821    2.324227
 H    0.923186    3.738541    2.552699
 H   -1.395413    0.183855    0.965777
 H   -2.492225   -1.769716   -2.522482
 H   -4.013020   -1.882264   -1.641143
 H   -3.740985   -3.472730    0.595059
 H   -3.185175   -5.812020    1.178069
 H   -1.732218   -7.153524   -0.312247
 H   -0.847782   -6.150385   -2.402958
 H   -1.421218   -3.807176   -2.985324
