48 
5c26_ligand_dft.xyz
 N   -0.213743    0.839319   -0.158667
 C   -2.243912    2.128701   -0.227527
 C   -5.627694   -2.003448    0.503821
 C   -3.591758   -0.529745    0.110933
 C    5.087505    0.185496    0.059164
 C    4.715809   -1.149642    0.121673
 C    3.340992   -1.470784    0.160656
 C   -3.598702   -2.815578   -0.661713
 C   -2.314801   -2.642376   -1.164408
 C   -1.669913   -1.418277   -1.031492
 C    4.125887    1.196860    0.031224
 C    2.382915   -0.467902    0.135260
 C   -0.632715    5.283399    0.103386
 C   -1.827266    4.609787   -0.030356
 C   -2.301741   -0.347716   -0.391239
 C   -4.247453   -1.753416   -0.032277
 C    2.774883    0.877459    0.068135
 C   -0.123213    3.228102    0.011036
 C   -1.579770    0.940436   -0.244727
 C    0.499486    1.932279   -0.035993
 C    6.947927   -1.922373    0.113922
 C    1.692368   -3.164011    0.264508
 N    0.424319    4.425886    0.128697
 N   -1.490102    3.282010   -0.088125
 N   -6.402427   -0.890119    0.713742
 N    1.852495    1.940652    0.057761
 O   -6.030159   -3.125561    0.755896
 O    5.570310   -2.203774    0.149464
 O    3.051106   -2.791635    0.225341
 H   -3.311753    2.249406   -0.343424
 H   -4.059966    0.270496    0.678121
 H    6.134800    0.462640    0.029198
 H   -4.113668   -3.767266   -0.738345
 H   -1.811815   -3.465848   -1.662487
 H   -0.666376   -1.274274   -1.418547
 H    4.444298    2.234388   -0.021059
 H    1.329668   -0.700358    0.166503
 H   -0.492102    6.352426    0.183181
 H   -2.851499    4.943355   -0.085803
 H    7.230439   -1.396244   -0.808126
 H    7.261380   -1.322879    0.979410
 H    7.453417   -2.888430    0.144871
 H    1.181013   -2.746980    1.141206
 H    1.160823   -2.844978   -0.641623
 H    1.683048   -4.252972    0.323931
 H   -7.365860   -1.076652    0.952269
 H   -6.225937   -0.047845    0.189036
 H    2.243246    2.872038    0.128309
