48 
5c26_ligand_xtb.xyz
 N   -1.905214    0.333458  -13.777103
 C   -4.122775    1.167496  -13.430026
 C   -2.649402    5.227305  -10.223369
 C   -2.730134    3.149647  -11.660528
 C    1.821629   -2.543186  -16.256530
 C    2.632689   -1.843056  -15.380598
 C    2.044406   -0.897107  -14.510183
 C   -1.059785    3.356897   -9.941880
 C   -0.556775    2.114008  -10.279759
 C   -1.136392    1.388892  -11.303589
 C    0.452297   -2.326352  -16.285078
 C    0.678315   -0.687270  -14.540958
 C   -5.605831   -0.708976  -16.031974
 C   -5.791561    0.200510  -15.015878
 C   -2.223322    1.901777  -12.008799
 C   -2.157936    3.875081  -10.622510
 C   -0.127123   -1.400649  -15.430055
 C   -3.693326   -0.409537  -15.164015
 C   -2.791876    1.116740  -13.114832
 C   -2.318992   -0.408219  -14.780263
 C    4.625980   -2.904508  -16.118458
 C    2.382404    0.688557  -12.774542
 N   -4.314781   -1.081301  -16.119165
 N   -4.567658    0.392008  -14.461632
 N   -3.977882    5.439235  -10.409004
 N   -1.503152   -1.209370  -15.501433
 O   -1.922080    6.082635   -9.766156
 O    3.985576   -1.982354  -15.275029
 O    2.907247   -0.245770  -13.685034
 H   -4.852030    1.757170  -12.900079
 H   -3.538004    3.575055  -12.238289
 H    2.244122   -3.269084  -16.932215
 H   -0.615334    3.946964   -9.155125
 H    0.291080    1.711543   -9.745733
 H   -0.761530    0.414881  -11.576186
 H   -0.161077   -2.881764  -16.978745
 H    0.203436    0.030059  -13.896065
 H   -6.338968   -1.111588  -16.702221
 H   -6.669749    0.701821  -14.665148
 H    4.268473   -3.925887  -15.947489
 H    4.493259   -2.646947  -17.174957
 H    5.683694   -2.847926  -15.865907
 H    1.858679    1.504218  -13.282907
 H    1.700733    0.213926  -12.061944
 H    3.241666    1.089787  -12.239405
 H   -4.362830    6.319896  -10.110019
 H   -4.607972    4.698205  -10.654924
 H   -1.988397   -1.730722  -16.221361
