45 
5c42_ligand_aiqm1.xyz
 C  496.476518  -24.983103   25.666855
 C  495.617104  -23.602207   27.251591
 C  496.239050  -24.828895   27.051586
 C  496.555882  -25.753397   28.091885
 C  494.470410  -24.449335   19.737311
 C  495.373234  -23.903679   18.819697
 C  496.626848  -23.471644   19.229002
 C  496.985744  -23.576285   20.573214
 C  496.099444  -24.124648   21.485580
 C  494.831603  -24.565950   21.077843
 O  496.480822  -24.283247   22.801050
 C  495.918117  -23.418579   23.697425
 C  495.988497  -23.842520   25.054628
 N  495.470997  -23.004960   26.035347
 C  494.892001  -21.782279   25.729202
 C  494.825851  -21.394923   24.432235
 C  495.344398  -22.220613   23.382620
 N  496.808917  -26.511541   28.932947
 O  494.035213  -25.065472   22.058594
 C  492.797146  -25.647991   21.670551
 C  492.212047  -26.310534   22.902336
 N  493.049615  -27.382438   23.418257
 C  493.013028  -28.599170   22.757441
 N  493.859728  -29.552311   23.267543
 C  494.769422  -29.426654   24.328624
 C  494.749905  -28.108494   24.942626
 C  493.912857  -27.163303   24.467317
 O  492.283495  -28.806885   21.805891
 O  495.470777  -30.364032   24.645329
 H  496.930605  -25.818321   25.168378
 H  495.286672  -23.123665   28.151839
 H  493.501600  -24.789094   19.402113
 H  495.084303  -23.821759   17.781490
 H  497.323376  -23.053006   18.518837
 H  497.951100  -23.248787   20.935502
 H  494.527085  -21.210998   26.565099
 H  494.375773  -20.441894   24.195041
 H  495.275669  -21.899578   22.355832
 H  492.946265  -26.391108   20.885796
 H  492.107143  -24.878955   21.310604
 H  491.243284  -26.731933   22.641370
 H  492.080213  -25.574028   23.695477
 H  493.840173  -30.441621   22.791707
 H  495.420882  -27.913201   25.766233
 H  493.873092  -26.160962   24.876358
