18 
5c87_ligand_dft.xyz
 C   -1.711983   -1.318337   -0.000030
 C   -2.722489   -0.375341   -0.000134
 C   -2.420863    0.993841   -0.000097
 C   -1.101722    1.405508    0.000054
 C   -0.069582    0.459282    0.000296
 C   -0.363037   -0.920325    0.000117
 C    0.723054   -1.872102    0.000048
 C    1.992948   -1.423977   -0.000214
 N    2.272945   -0.076148    0.000090
 C    1.324745    0.937882    0.000756
 O    1.668001    2.110015   -0.000476
 H   -1.951306   -2.378327   -0.000149
 H   -3.759354   -0.698926   -0.000311
 H   -3.221817    1.726393   -0.000131
 H   -0.832894    2.456687    0.000209
 H    0.517968   -2.936084   -0.000031
 H    2.855233   -2.080203   -0.000558
 H    3.231114    0.244779   -0.000625
