54 
5cal_ligand_aiqm1.xyz
 C  -52.909403    1.174109  -19.360562
 C  -53.910411    2.089492  -19.661219
 C  -50.640978   -1.465224  -20.448350
 C  -53.914768    1.403028  -21.861889
 C  -52.917057    0.456858  -21.688575
 C  -52.418259    0.356629  -20.389001
 C  -51.522248   -2.560423  -21.039892
 C  -49.709327   -0.847703  -21.483597
 N  -52.264272    0.895430  -18.167865
 C  -50.485207   -0.690028  -17.489698
 C  -51.415928   -0.056674  -18.468050
 N  -54.405167    2.200247  -20.891594
 N  -51.459760   -0.432039  -19.799911
 N  -54.544894    1.649845  -23.087404
 C  -54.380644    1.109133  -24.329971
 C  -55.169606    1.618679  -25.383538
 C  -54.992566    1.041920  -26.619808
 N  -54.118870    0.053099  -26.854330
 C  -53.409090   -0.337755  -25.785827
 N  -53.499438    0.120146  -24.527415
 N  -52.460203   -1.289572  -26.055038
 C  -51.906838   -2.138486  -25.023671
 C  -50.726803   -2.989863  -25.550485
 C  -51.153213   -3.806520  -26.779077
 C  -49.544844   -2.089751  -25.914222
 C  -50.314204   -3.898188  -24.384566
 O  -49.486579   -3.552209  -23.559966
 N  -50.963889   -5.087103  -24.259410
 H  -54.320752    2.742018  -18.903450
 H  -50.035125   -1.903528  -19.654854
 H  -52.567088   -0.144984  -22.508277
 H  -52.189859   -2.152400  -21.798526
 H  -50.894577   -3.312854  -21.514273
 H  -52.132886   -3.032134  -20.268215
 H  -50.276432   -0.301939  -22.238362
 H  -49.016704   -0.149006  -21.012400
 H  -49.144515   -1.634111  -21.982786
 H  -50.634181   -0.221958  -16.520558
 H  -50.674838   -1.761327  -17.397980
 H  -49.444158   -0.559860  -17.790024
 H  -55.229465    2.385605  -23.013226
 H  -55.878550    2.417063  -25.222209
 H  -55.571906    1.375780  -27.471607
 H  -52.630042   -1.725396  -26.947483
 H  -52.676562   -2.808771  -24.602253
 H  -51.547830   -1.504742  -24.217158
 H  -52.140475   -4.260452  -26.664124
 H  -51.186426   -3.172706  -27.663234
 H  -50.432484   -4.599746  -26.992206
 H  -49.855413   -1.327748  -26.629672
 H  -49.158754   -1.601800  -25.022810
 H  -48.736793   -2.675191  -26.359119
 H  -50.651594   -5.703927  -23.530288
 H  -51.550424   -5.458760  -24.981274
