54 
5cal_ligand_ani-2x.xyz
 C  -52.587442    1.261967  -19.464628
 C  -53.483098    2.290799  -19.758551
 C  -50.720875   -1.665785  -20.558380
 C  -53.674865    1.550648  -21.940714
 C  -52.782578    0.494664  -21.771550
 C  -52.251120    0.366187  -20.493523
 C  -51.754201   -2.670998  -21.059132
 C  -49.779024   -1.200617  -21.664974
 N  -51.929234    0.932539  -18.295665
 C  -50.332742   -0.843326  -17.647485
 C  -51.224366   -0.121021  -18.602508
 N  -54.008568    2.425234  -20.964849
 N  -51.369035   -0.525595  -19.914142
 N  -54.324161    1.836551  -23.136158
 C  -54.368170    1.194016  -24.352021
 C  -55.208935    1.720127  -25.350347
 C  -55.225329    1.044451  -26.553853
 N  -54.495627   -0.043148  -26.801643
 C  -53.723049   -0.450010  -25.787275
 N  -53.630109    0.108964  -24.568951
 N  -52.933148   -1.535410  -26.051457
 C  -52.379193   -2.379218  -25.006389
 C  -51.042292   -3.032197  -25.429653
 C  -51.231799   -3.879489  -26.699792
 C  -49.983692   -1.953893  -25.672466
 C  -50.664873   -4.011621  -24.315905
 O  -51.510528   -4.711967  -23.782009
 N  -49.347555   -4.111140  -23.972328
 H  -53.770134    3.008373  -18.992969
 H  -50.124826   -2.154160  -19.783518
 H  -52.540728   -0.158837  -22.596098
 H  -52.366688   -2.240573  -21.859612
 H  -51.261177   -3.560733  -21.464501
 H  -52.421415   -2.974617  -20.247580
 H  -50.332170   -0.658037  -22.439576
 H  -49.009767   -0.533841  -21.265279
 H  -49.291604   -2.062798  -22.127682
 H  -50.377949   -0.341780  -16.678886
 H  -50.646210   -1.885918  -17.517068
 H  -49.292802   -0.841961  -17.995214
 H  -54.915345    2.650451  -23.038260
 H  -55.812500    2.605489  -25.177541
 H  -55.856177    1.388023  -27.372451
 H  -53.237913   -2.007686  -26.891572
 H  -53.073171   -3.179288  -24.719313
 H  -52.210614   -1.751134  -24.125844
 H  -52.040725   -4.605953  -26.565321
 H  -51.458065   -3.249962  -27.567048
 H  -50.312455   -4.430054  -26.928364
 H  -50.371980   -1.224689  -26.386761
 H  -49.733805   -1.417171  -24.748771
 H  -49.067145   -2.377466  -26.094985
 H  -49.109857   -4.709710  -23.196231
 H  -48.621470   -3.542481  -24.374510
