55 
5can_ligand_dft.xyz
 C    4.586212   -1.286412    0.150969
 C    3.615869   -2.276996    0.193876
 C    5.459880    2.242845   -0.097626
 C    1.933887   -0.717661   -0.003602
 C    2.817003    0.368465   -0.057201
 C    4.167971    0.052020    0.024657
 C    4.930737    2.744856   -1.441661
 C    4.817772    2.943720    1.100480
 N    5.967002   -1.364098    0.211871
 C    7.803851    0.284649    0.146270
 C    6.369784   -0.128420    0.126617
 N    2.317361   -1.996225    0.118465
 N    5.330826    0.789679    0.010887
 N    0.571211   -0.439393   -0.082072
 C   -0.541110   -1.253827   -0.075864
 C   -0.533858   -2.652565    0.024555
 C   -1.780533   -3.252170    0.003333
 N   -2.938944   -2.597940   -0.096727
 C   -2.819058   -1.263287   -0.183943
 N   -1.680774   -0.558397   -0.183209
 N   -3.980281   -0.549646   -0.265286
 C   -5.270644   -1.190372   -0.524989
 C   -6.149430   -0.033097   -1.013071
 C   -5.495133    1.245970   -0.433873
 C   -4.003750    0.884340   -0.517445
 C   -5.840039    2.497039   -1.236990
 C   -5.996883    1.433307    1.013163
 O   -6.976965    2.115399    1.263833
 N   -5.307262    0.779627    1.989064
 H    3.889071   -3.324547    0.292543
 H    6.534074    2.443592   -0.065046
 H    2.446795    1.382468   -0.158720
 H    5.433796    2.234968   -2.268429
 H    5.110423    3.820212   -1.535617
 H    3.855373    2.572021   -1.542477
 H    5.243704    2.571217    2.036551
 H    4.995975    4.021732    1.040533
 H    3.736663    2.780847    1.132111
 H    8.410833   -0.616340    0.239999
 H    8.026016    0.945867    0.991237
 H    8.089213    0.804524   -0.775074
 H    0.314595    0.533940   -0.169017
 H    0.386394   -3.207593    0.109195
 H   -1.858287   -4.335635    0.074601
 H   -5.165692   -1.987690   -1.265720
 H   -5.661129   -1.647855    0.391329
 H   -6.115863    0.028596   -2.106875
 H   -7.196301   -0.137359   -0.716427
 H   -3.386231    1.420272    0.208499
 H   -3.609797    1.117397   -1.517334
 H   -6.908078    2.709388   -1.162676
 H   -5.572181    2.356893   -2.289635
 H   -5.301455    3.370541   -0.855046
 H   -5.687479    0.810492    2.922577
 H   -4.583858    0.109190    1.771388
