55 
5can_ligand_aiqm1.xyz
 C   -4.364113   -1.167764   -1.423264
 C   -3.368893   -1.522488   -2.319420
 C   -5.359179    0.274796    1.777615
 C   -1.738971   -0.741315   -0.899138
 C   -2.653555   -0.341162    0.081851
 C   -3.996013   -0.568749   -0.206541
 C   -4.704435   -0.570962    2.864020
 C   -4.860123    1.715331    1.784717
 N   -5.740596   -1.298744   -1.501921
 C   -7.629313   -0.723295   -0.009255
 C   -6.186215   -0.799355   -0.378876
 N   -2.075408   -1.314096   -2.065086
 N   -5.177485   -0.336207    0.457201
 N   -0.391270   -0.519175   -0.626532
 C    0.756007   -0.786349   -1.346552
 C    0.803831   -1.388324   -2.614873
 C    2.074978   -1.551156   -3.138989
 N    3.207789   -1.180077   -2.528252
 C    3.029133   -0.620372   -1.321438
 N    1.861025   -0.402375   -0.699975
 N    4.143012   -0.198605   -0.678029
 C    5.491897   -0.479590   -1.158182
 C    6.380713   -0.039764    0.010091
 C    5.535877    0.987662    0.797701
 C    4.125137    0.408297    0.642426
 C    5.968610    1.100913    2.255765
 C    5.708510    2.349268    0.099495
 O    6.579319    3.133261    0.434683
 N    4.863194    2.616953   -0.927680
 H   -3.617539   -1.985492   -3.264901
 H   -6.435177    0.282834    1.949870
 H   -2.310125    0.114949    0.999415
 H   -5.086710   -1.591806    2.845249
 H   -4.912386   -0.140466    3.844221
 H   -3.623194   -0.611939    2.733432
 H   -5.351754    2.300919    1.007560
 H   -5.070132    2.175310    2.750979
 H   -3.784754    1.760691    1.613455
 H   -8.212574   -1.146597   -0.821882
 H   -7.945592    0.308931    0.151630
 H   -7.836967   -1.284409    0.903678
 H   -0.198672   -0.087796    0.262570
 H   -0.080683   -1.700242   -3.138980
 H    2.197506   -2.007581   -4.114282
 H    5.600293   -1.539908   -1.396620
 H    5.692571    0.073568   -2.080328
 H    6.581975   -0.896162    0.657302
 H    7.336424    0.369132   -0.314161
 H    3.333202    1.155341    0.710358
 H    3.930774   -0.346670    1.415711
 H    6.969527    1.521232    2.321179
 H    5.968031    0.113156    2.724123
 H    5.292925    1.750092    2.817233
 H    5.042816    3.451418   -1.456799
 H    4.236749    1.924538   -1.294973
