16 
5cdh_ligand_dft.xyz
 O    2.270453    1.232749   -0.608831
 O    2.633000   -0.779368    0.327425
 C    1.910491    0.162171    0.105485
 C    0.478143    0.238380    0.607590
 O    0.220332   -0.846689    1.446328
 C   -0.478135    0.237290   -0.607969
 O   -0.220280   -0.849264   -1.444788
 C   -1.910490    0.161979   -0.105744
 O   -2.633091   -0.779826   -0.326267
 O   -2.270405    1.233745    0.606795
 H    3.176343    1.076704   -0.921584
 H    0.344582    1.174825    1.162807
 H    0.922510   -1.495074    1.276420
 H   -0.344578    1.172759   -1.164832
 H   -0.922652   -1.497212   -1.274013
 H   -3.176331    1.078291    0.919737
