35 
5ceh_ligand_aiqm1.xyz
 C  128.736060  369.321333  115.478429
 C  129.349241  368.304505  114.816429
 C  129.715092  369.667594  112.894980
 C  130.108913  370.121532  111.648334
 C  129.642779  371.466916  111.622155
 C  128.530314  370.622831  114.829855
 C  126.740546  369.243457  117.028704
 C  128.934063  370.188089  117.847426
 C  128.266222  369.167116  116.921518
 N  129.851824  368.482760  113.536271
 N  129.027056  371.811273  112.735578
 N  129.078875  370.692958  113.513491
 O  127.961034  371.582338  115.292317
 C  130.811582  369.381932  110.662995
 N  131.388246  368.770271  109.862055
 C  129.578005  366.939597  115.357219
 C  128.526365  366.159055  115.845583
 C  128.778053  364.876666  116.327690
 C  130.071905  364.363114  116.324680
 C  131.121241  365.134884  115.830980
 C  130.874014  366.413888  115.342410
 H  129.746785  372.177690  110.819681
 H  126.428513  369.032269  118.052312
 H  126.393797  370.238373  116.756050
 H  126.263384  368.516777  116.365933
 H  128.600017  371.195715  117.610889
 H  128.667180  369.965914  118.881652
 H  130.021272  370.147832  117.755481
 H  128.577368  368.176664  117.260323
 H  130.266790  367.708325  113.051779
 H  127.516176  366.548905  115.851285
 H  127.958322  364.282952  116.707233
 H  130.260889  363.368735  116.703620
 H  132.129520  364.744913  115.824175
 H  131.690056  367.016829  114.961688
