35 
5ceh_ligand_ani-2x.xyz
 C  128.739272  369.283097  115.498610
 C  129.414998  368.291802  114.832916
 C  129.764805  369.675569  112.921238
 C  130.130674  370.152931  111.672660
 C  129.506565  371.429481  111.613660
 C  128.424696  370.544254  114.806295
 C  126.788597  369.262634  117.102194
 C  128.963368  370.300220  117.803939
 C  128.313984  369.196652  116.952993
 N  130.024646  368.528571  113.607394
 N  128.833065  371.713453  112.701628
 N  128.994973  370.627035  113.505627
 O  127.764793  371.469911  115.227933
 C  130.936913  369.491699  110.708036
 N  131.594051  368.954825  109.918039
 C  129.599841  366.906269  115.339707
 C  128.521599  366.140882  115.793930
 C  128.720604  364.844671  116.259328
 C  129.999307  364.296227  116.283899
 C  131.079243  365.047498  115.826091
 C  130.878528  366.333803  115.341360
 H  129.542688  372.138808  110.795363
 H  126.506273  369.156136  118.155088
 H  126.422508  370.221265  116.727226
 H  126.298258  368.464704  116.532371
 H  128.638305  371.284215  117.456362
 H  128.675329  370.181711  118.854547
 H  130.055506  370.250238  117.739929
 H  128.662438  368.237630  117.358372
 H  130.477149  367.762793  113.129593
 H  127.511666  366.547271  115.776599
 H  127.872058  364.266202  116.612148
 H  130.154041  363.286654  116.654838
 H  132.080489  364.623237  115.830899
 H  131.720274  366.921650  114.980392
