60 
5cf4_ligand_dft.xyz
 C   -0.465941   -2.915336    1.363775
 C   -0.164320   -2.419322   -0.046842
 C   -3.011478   -1.389142   -0.543481
 C   -4.312451   -0.865478    1.433267
 C   -5.389245   -1.511535   -0.610355
 C   -3.659928    0.189245    2.278436
 C   -5.153046    0.181373    2.108965
 C   -5.732536   -1.138752   -2.016959
 C    1.344225    4.349415   -0.221689
 C    5.863401   -0.118501    0.691768
 C   -0.430948    1.218891   -0.260245
 C    0.318603    0.026338   -0.155817
 N    1.652098   -0.123902   -0.010642
 C    2.367705    0.990108    0.032761
 C    1.750040    2.275422   -0.084865
 C    0.373378    2.379499   -0.229951
 C   -1.795000    0.848971   -0.359598
 C   -1.839788   -0.528596   -0.318967
 N   -0.550930   -1.026705   -0.224578
 N    2.343309    3.521952   -0.082994
 N    0.121702    3.723737   -0.315238
 N    3.711947    0.928264    0.213454
 C   -1.175088    4.341633   -0.475436
 O   -2.957378   -2.409359   -1.210183
 N   -4.225593   -0.898918   -0.014243
 C   -6.585988   -0.643010   -0.878976
 C    4.452709   -0.314259    0.146529
 C    6.678459   -1.399826    0.659569
 O    6.836658   -1.804230   -0.678526
 C    7.539438   -3.011464   -0.796968
 H    0.062817   -2.308062    2.104974
 H   -1.539628   -2.864759    1.573738
 H   -0.147665   -3.956893    1.474421
 H   -0.693960   -3.013397   -0.792389
 H    0.907517   -2.462291   -0.248851
 H   -4.355891   -1.860693    1.882482
 H   -5.576493   -2.544245   -0.316397
 H   -3.096902    0.967110    1.779843
 H   -3.235668   -0.136186    3.223112
 H   -5.785539   -0.124801    2.936051
 H   -5.575985    0.951822    1.473606
 H   -6.114638   -1.919026   -2.666251
 H   -5.084140   -0.418597   -2.506054
 H    1.420711    5.428422   -0.265151
 H    5.809681    0.242568    1.725741
 H    6.391797    0.643809    0.104667
 H   -2.657856    1.487156   -0.488251
 H    4.207728    1.795934    0.066532
 H   -1.050182    5.425209   -0.521661
 H   -1.648700    3.998947   -1.400116
 H   -1.822879    4.095077    0.371236
 H   -6.508365    0.408388   -0.623456
 H   -7.571019   -1.075294   -0.733738
 H    3.916211   -1.058615    0.743695
 H    4.496368   -0.699869   -0.880286
 H    6.168286   -2.189438    1.239217
 H    7.663343   -1.235952    1.128539
 H    8.554216   -2.934010   -0.374856
 H    7.016873   -3.837311   -0.288576
 H    7.614768   -3.241345   -1.861971
