55 
5cf6_ligand_xtb.xyz
 C   -2.145687    0.423988   -0.510478
 C    4.991676    1.858621    1.542935
 C    1.844838   -3.951908   -1.619395
 C    0.605104    3.290593   -0.031416
 C   -0.083276    4.631729    0.259567
 C   -2.894386   -1.796133    0.285221
 C    4.094843   -3.134023   -0.859627
 C   -2.195051   -1.858204    1.611408
 C    1.410532    0.253964    0.144861
 C    1.241076   -1.022032   -0.442733
 N    0.198926    0.861053    0.205112
 N    2.555760    0.806973    0.579126
 C   -0.747426    0.005655   -0.321082
 C    3.630389   -1.206706   -0.111109
 C    2.426844   -1.762504   -0.564518
 N    4.653166   -2.098000   -0.311527
 C   -0.130836   -1.156524   -0.731334
 C    3.668023    0.097054    0.452886
 N    2.749045   -3.000894   -1.042742
 C   -0.045700    2.158832    0.784306
 N    4.855430    0.620478    0.821615
 N   -3.103976   -0.536681   -0.353499
 O   -2.449822    1.564219   -0.827813
 O    0.095371    5.006364    1.600546
 O    1.963129    3.454104    0.305846
 C   -4.455176   -0.135245   -0.635221
 C   -3.667476   -2.110498    1.535531
 C   -4.905846   -0.076320   -2.065907
 C   -5.430802   -1.142316   -1.154591
 H    4.398518    2.631140    1.055188
 H    6.037702    2.156184    1.540175
 H    4.648983    1.764622    2.578708
 H    1.364362   -3.528749   -2.504507
 H    1.070742   -4.223369   -0.897783
 H    2.396601   -4.846068   -1.905373
 H    0.494599    3.059166   -1.102836
 H   -1.156178    4.557560    0.078630
 H    0.343212    5.392735   -0.409321
 H   -2.729142   -2.622926   -0.401070
 H    4.622483   -4.022209   -1.148205
 H   -1.865907   -0.928591    2.048516
 H   -1.527733   -2.685349    1.797935
 H   -0.603072   -1.985995   -1.218043
 H    0.361241    2.181580    1.800994
 H   -1.121560    2.322360    0.817926
 H    5.626504   -0.027886    0.811662
 H    1.039621    4.894981    1.779062
 H    2.343339    2.553537    0.418378
 H   -4.822220    0.641628    0.028534
 H   -4.034381   -3.116592    1.667723
 H   -4.328658   -1.350761    1.920823
 H   -4.191464   -0.363109   -2.821560
 H   -5.555519    0.731237   -2.362351
 H   -6.452221   -1.077333   -0.812410
 H   -5.088240   -2.153631   -1.306364
