60 
5cf8_ligand_aiqm1.xyz
 N   -1.745477   47.013158    0.779856
 C   -1.938689   47.497218   -0.503134
 C   -0.585356   47.187525    1.645055
 C   -0.985322   48.443935   -1.116920
 C    0.597657   46.356531    1.174792
 C    0.001092   49.433958   -3.057171
 C   -1.249657   47.313626   -3.312535
 C   -0.293599   49.937258   -4.433048
 C   -0.572420   50.811913   -3.239820
 C   -0.738036   45.929543   -3.003480
 C   -6.380178   45.730401   -1.716177
 C   -3.158075   47.056906   -0.971193
 C   -3.877693   43.351715    5.935599
 C   -3.728253   46.261237    0.057979
 C   -2.813005   46.244571    1.122602
 N   -2.904247   45.600462    2.313450
 C   -4.006768   44.903948    2.494422
 C   -5.032550   44.836305    1.506193
 C   -4.894150   45.510378    0.300177
 N   -4.242779   44.196407    3.642493
 N   -6.234770   44.163271    1.560098
 C   -6.801438   44.431989    0.409792
 N   -6.042779   45.240913   -0.399419
 N   -0.841755   48.413505   -2.486502
 O   -0.368836   49.252358   -0.437192
 C   -0.221009   46.673171   -4.202146
 C   -3.477217   44.074116    4.787749
 C   -2.820518   43.489413    6.813613
 N   -1.899783   44.257410    6.187947
 N   -2.273014   44.617616    4.932584
 C   -2.614563   42.964835    8.194051
 C   -0.588566   44.612681    6.671657
 H   -0.907982   46.868432    2.631791
 H   -0.333173   48.243828    1.672861
 H    0.337845   45.297052    1.149280
 H    0.926713   46.668652    0.180169
 H    1.436869   46.485338    1.861951
 H    1.037677   49.391994   -2.745666
 H   -2.250759   47.377763   -3.726948
 H   -1.141556   49.491504   -4.936249
 H    0.550500   50.175074   -5.064360
 H    0.081135   51.648666   -3.039768
 H   -1.605533   50.951197   -2.952586
 H   -1.419370   45.103605   -3.149063
 H   -0.080165   45.839252   -2.149278
 H   -6.398637   46.818992   -1.717203
 H   -5.645214   45.387429   -2.443154
 H   -7.362187   45.352192   -1.989745
 H   -3.591449   47.313751   -1.922248
 H   -4.797096   42.813341    6.095772
 H   -5.136012   43.732506    3.639857
 H   -7.766686   44.076863    0.085432
 H    0.780841   47.077573   -4.154598
 H   -0.544464   46.359332   -5.184950
 H   -2.538973   43.778344    8.918813
 H   -3.454186   42.333420    8.479591
 H   -1.700812   42.371693    8.259796
 H   -0.652751   44.961866    7.701680
 H    0.089099   43.757711    6.625588
 H   -0.210620   45.409660    6.038766
