28 
5chk_ligand_xtb.xyz
 O   14.130124    4.219213   28.616127
 O   13.566567    3.316274   30.536712
 C   13.285657    3.510595   29.373575
 C   12.059486    2.983816   28.730059
 C   11.299452    1.968966   29.358947
 C   10.171527    1.448354   28.711779
 C    9.775168    1.935804   27.489058
 C   10.491796    2.961047   26.880938
 C   11.616944    3.468634   27.494963
 O   12.021042   -1.709640   35.970650
 C   11.808531   -1.189836   34.883258
 C   10.720062   -1.618663   34.005238
 C   10.498861   -1.040796   32.813958
 C   12.629625   -0.091304   34.369056
 C   12.403973    0.482998   33.175770
 C   11.322424    0.037149   32.330100
 N   10.999915    0.506244   31.156743
 N   11.661191    1.487351   30.587917
 H   13.856914    4.276522   27.691018
 H    9.624776    0.665175   29.211007
 H    8.899975    1.530504   27.005107
 H   10.170248    3.360769   25.932121
 H   12.135537    4.284245   27.007282
 H   10.101339   -2.427087   34.365947
 H    9.694478   -1.359651   32.167327
 H   13.437311    0.238614   35.006598
 H   13.039843    1.292921   32.842026
 H   12.463233    1.950182   31.030220
