28 
5chk_ligand_aiqm1.xyz
 O   14.160818    4.135888   28.639325
 O   13.499997    3.385920   30.597051
 C   13.261969    3.498264   29.415290
 C   12.041126    2.973932   28.742856
 C   11.275306    1.950901   29.341059
 C   10.146895    1.439761   28.679948
 C    9.765846    1.965569   27.457900
 C   10.489782    3.006952   26.872030
 C   11.616828    3.495786   27.512515
 O   12.052270   -1.658724   35.975972
 C   11.828987   -1.160911   34.881870
 C   10.730001   -1.634733   34.021038
 C   10.503506   -1.072752   32.823292
 C   12.652351   -0.051027   34.358009
 C   12.422228    0.509884   33.158240
 C   11.323825    0.025894   32.313238
 N   10.978589    0.460925   31.141024
 N   11.665224    1.456339   30.573773
 H   13.917536    4.047854   27.713867
 H    9.584902    0.645367   29.147749
 H    8.889081    1.572457   26.958754
 H   10.177157    3.435203   25.930841
 H   12.149225    4.327339   27.062866
 H   10.124035   -2.446365   34.397987
 H    9.701965   -1.403184   32.172467
 H   13.458083    0.291718   34.993627
 H   13.062588    1.319215   32.829314
 H   12.405878    1.970930   31.031597
