53 
5cls_ligand_dft.xyz
 C   -2.404630    0.993042    1.838205
 C   -3.461188    0.257298    1.043285
 C   -4.384633    0.954137    0.259188
 C   -5.357401    0.280211   -0.462494
 C   -5.423839   -1.115650   -0.415939
 C   -4.503978   -1.824537    0.360623
 C   -3.535549   -1.132768    1.083092
 O   -6.406456   -1.684449   -1.157196
 C   -6.505054   -3.091188   -1.160869
 N   -1.050313    0.607915    1.460912
 C   -0.272128    1.049745    0.445487
 C    0.807030    0.199822    0.462084
 N    0.639206   -0.711276    1.453769
 N   -0.484986   -0.461237    2.054221
 C    1.932483    0.260825   -0.517685
 C   -0.486853    2.215509   -0.482452
 C    1.889637    1.601057   -1.263362
 C    0.465389    1.991759   -1.677930
 O   -1.835404    2.307244   -0.922238
 C   -0.211523    3.544864    0.221527
 O    3.163100    0.119273    0.196564
 C    4.206671   -0.357321   -0.522306
 O    4.171771   -0.596705   -1.714572
 N    5.293497   -0.500581    0.277803
 C    6.501281   -1.160789   -0.203018
 C    7.677219   -0.748923    0.677534
 C    6.330895   -2.680030   -0.266084
 H   -2.502813    2.070478    1.698907
 H   -2.487830    0.771191    2.904992
 H   -4.329207    2.037360    0.199394
 H   -6.076024    0.815224   -1.074390
 H   -4.530329   -2.906728    0.414888
 H   -2.817429   -1.688825    1.680032
 H   -5.593141   -3.556994   -1.555837
 H   -7.343644   -3.332241   -1.815007
 H   -6.705708   -3.484846   -0.156289
 H    1.861972   -0.563942   -1.234442
 H    2.538339    1.535917   -2.140510
 H    2.314056    2.364483   -0.600533
 H    0.479680    2.901206   -2.287472
 H    0.040099    1.195876   -2.305034
 H   -2.100402    1.449438   -1.281322
 H   -0.397343    4.366796   -0.476149
 H   -0.874486    3.667947    1.082761
 H    0.821248    3.598707    0.574354
 H    5.130685   -0.448467    1.273130
 H    6.662536   -0.786261   -1.218243
 H    8.603800   -1.195445    0.304747
 H    7.533895   -1.096133    1.708692
 H    7.795868    0.338635    0.692308
 H    7.230971   -3.152108   -0.674507
 H    5.484959   -2.937901   -0.909031
 H    6.151363   -3.092396    0.733843
