53 
5cls_ligand_xtb.xyz
 C   -2.516323   -0.969785   -2.183759
 C   -3.661039   -0.357121   -1.412076
 C   -4.559477   -1.148516   -0.707269
 C   -5.588633   -0.570292    0.005380
 C   -5.739015    0.817240    0.034909
 C   -4.834023    1.611619   -0.662377
 C   -3.807501    1.021591   -1.378263
 O   -6.785689    1.284321    0.768143
 C   -6.996892    2.674159    0.832181
 N   -1.256646   -0.504144   -1.661406
 C   -0.476692   -1.041938   -0.696807
 C    0.526295   -0.106015   -0.513180
 N    0.298766    0.920859   -1.353717
 N   -0.760543    0.674041   -2.029178
 C    1.616039   -0.236230    0.492128
 C   -0.603285   -2.353950    0.011280
 C    1.661747   -1.683770    1.007202
 C    0.266655   -2.241218    1.282624
 O   -1.947429   -2.656979    0.347548
 C   -0.130638   -3.495602   -0.896254
 O    2.860124    0.119902   -0.105178
 C    3.791869    0.634808    0.733845
 O    3.646134    0.755096    1.925738
 N    4.899192    0.962092    0.040302
 C    6.042587    1.623686    0.634868
 C    7.315247    0.843778    0.314716
 C    6.136097    3.067498    0.144491
 H   -2.551066   -2.057317   -2.109836
 H   -2.561134   -0.662194   -3.232481
 H   -4.449186   -2.222590   -0.712556
 H   -6.294412   -1.173821    0.553553
 H   -4.916655    2.686698   -0.657334
 H   -3.099553    1.640682   -1.910016
 H   -6.146508    3.189941    1.289652
 H   -7.877717    2.809201    1.457840
 H   -7.189167    3.097563   -0.158830
 H    1.435910    0.452478    1.331736
 H    2.255850   -1.708475    1.921763
 H    2.171248   -2.293241    0.258492
 H    0.346622   -3.227463    1.742247
 H   -0.243791   -1.580967    1.990985
 H   -2.287929   -1.988241    0.952556
 H   -0.166939   -4.430348   -0.343721
 H   -0.788262   -3.580509   -1.757224
 H    0.881481   -3.315601   -1.244064
 H    4.858052    0.879710   -0.963276
 H    5.859765    1.612083    1.714177
 H    8.168678    1.303598    0.804944
 H    7.494069    0.836149   -0.758625
 H    7.226244   -0.182652    0.660649
 H    6.963020    3.576151    0.632184
 H    5.216628    3.600889    0.371200
 H    6.298025    3.092549   -0.931407
