53 
5cls_ligand_ani-2x.xyz
 C   -2.510456   -0.973048   -2.206931
 C   -3.669155   -0.377478   -1.431917
 C   -4.589081   -1.192276   -0.768786
 C   -5.652837   -0.647695   -0.067448
 C   -5.816593    0.740162   -0.017208
 C   -4.906034    1.564605   -0.675205
 C   -3.841591    1.001020   -1.374892
 O   -6.886409    1.187135    0.692463
 C   -7.082378    2.582367    0.763326
 N   -1.205107   -0.532127   -1.739093
 C   -0.467412   -0.963381   -0.687615
 C    0.607973   -0.106981   -0.653574
 N    0.485348    0.782936   -1.669635
 N   -0.606610    0.522730   -2.314269
 C    1.670605   -0.147003    0.390677
 C   -0.643427   -2.193798    0.137006
 C    1.664858   -1.527570    1.071099
 C    0.239753   -1.995791    1.396071
 O   -1.997970   -2.400739    0.532377
 C   -0.253604   -3.464954   -0.625358
 O    2.936135    0.111104   -0.236508
 C    3.918612    0.503288    0.610577
 O    3.787882    0.610782    1.814387
 N    5.063527    0.744583   -0.083923
 C    6.204194    1.350353    0.589149
 C    7.474441    1.029910   -0.188263
 C    6.021470    2.854994    0.793038
 H   -2.539162   -2.063014   -2.143827
 H   -2.554867   -0.686922   -3.261422
 H   -4.461679   -2.274011   -0.786398
 H   -6.371116   -1.273273    0.451695
 H   -5.012570    2.643811   -0.652189
 H   -3.126888    1.648783   -1.879075
 H   -6.231298    3.083672    1.243055
 H   -7.978023    2.731210    1.368067
 H   -7.238883    3.017165   -0.232792
 H    1.488045    0.636297    1.135853
 H    2.271758   -1.473173    1.978584
 H    2.153387   -2.235378    0.392396
 H    0.256695   -2.934213    1.960398
 H   -0.248882   -1.250502    2.040343
 H   -2.365206   -1.543336    0.792803
 H   -0.432088   -4.335276    0.012211
 H   -0.872637   -3.565862   -1.522479
 H    0.797123   -3.455884   -0.932758
 H    4.969926    0.836367   -1.084841
 H    6.240320    0.877194    1.575667
 H    8.361969    1.418634    0.323712
 H    7.432563    1.487463   -1.184935
 H    7.587263   -0.051855   -0.306728
 H    6.879000    3.275516    1.330523
 H    5.119362    3.049122    1.380609
 H    5.929955    3.373739   -0.169520
