53 
5cls_ligand_aiqm1.xyz
 C   -2.454231   -0.949479   -2.208082
 C   -3.595164   -0.328966   -1.442760
 C   -4.562939   -1.118908   -0.814253
 C   -5.615967   -0.539476   -0.118664
 C   -5.722230    0.851476   -0.037681
 C   -4.763093    1.653832   -0.659838
 C   -3.712348    1.055129   -1.354673
 O   -6.785905    1.322839    0.667732
 C   -6.918527    2.730141    0.764757
 N   -1.154648   -0.537540   -1.676578
 C   -0.429985   -1.074248   -0.664247
 C    0.606144   -0.187598   -0.490481
 N    0.482382    0.824231   -1.386616
 N   -0.593382    0.609107   -2.099542
 C    1.663516   -0.314694    0.550537
 C   -0.624344   -2.357250    0.108021
 C    1.631347   -1.719591    1.157831
 C    0.201268   -2.212826    1.398159
 O   -1.995384   -2.593175    0.403585
 C   -0.189949   -3.553215   -0.727377
 O    2.928907   -0.089041   -0.080195
 C    3.862809    0.478036    0.718754
 O    3.694368    0.714244    1.896716
 N    4.998878    0.687690    0.019468
 C    6.084394    1.493027    0.575262
 C    7.364342    1.161166   -0.170964
 C    5.760922    2.981821    0.503672
 H   -2.499088   -2.036301   -2.169899
 H   -2.462249   -0.627572   -3.249393
 H   -4.488070   -2.199013   -0.852425
 H   -6.365275   -1.148220    0.370095
 H   -4.820370    2.731347   -0.610484
 H   -2.962648    1.677509   -1.827204
 H   -6.057464    3.175190    1.268602
 H   -7.813579    2.905161    1.354260
 H   -7.036638    3.185411   -0.221157
 H    1.517339    0.439556    1.324782
 H    2.201690   -1.715164    2.086872
 H    2.147770   -2.391638    0.465853
 H    0.201701   -3.177588    1.910698
 H   -0.315092   -1.502639    2.054857
 H   -2.337771   -1.864163    0.927697
 H   -0.380186   -4.467750   -0.166376
 H   -0.755757   -3.591044   -1.659230
 H    0.870961   -3.494725   -0.968601
 H    4.918556    0.606359   -0.980313
 H    6.172015    1.200373    1.620833
 H    8.204501    1.718463    0.243017
 H    7.261273    1.432901   -1.224721
 H    7.587538    0.096311   -0.106122
 H    6.570796    3.565974    0.942406
 H    4.843618    3.200231    1.048193
 H    5.635446    3.293697   -0.536286
