18 
5cp9_ligand_ani-2x.xyz
 C   -2.417155   28.314844  -10.816480
 C   -2.279954   26.914820  -10.534444
 C   -3.524166   26.390761  -10.632953
 O   -4.421671   27.356538  -10.959279
 C   -3.735468   28.528307  -11.066386
 C   -4.538622   29.740398  -11.399897
 C   -5.478444   29.538793  -12.600638
 C   -6.198454   30.836612  -12.909287
 O   -7.319708   31.086111  -12.561611
 O   -5.467870   31.773263  -13.565808
 H   -1.626867   29.054940  -10.826903
 H   -1.371506   26.382022  -10.290139
 H   -3.931279   25.397939  -10.507335
 H   -3.846685   30.566425  -11.593576
 H   -5.139707   30.033434  -10.527489
 H   -6.228644   28.781786  -12.365241
 H   -4.911333   29.190599  -13.473151
 H   -4.598565   31.420907  -13.800882
