18 
5cp9_ligand_xtb.xyz
 C   -2.496860   28.245343  -11.125583
 C   -2.305805   26.897236  -10.732918
 C   -3.538990   26.427834  -10.408475
 O   -4.468015   27.384228  -10.570625
 C   -3.832798   28.492943  -11.004498
 C   -4.643829   29.708899  -11.297390
 C   -5.379767   29.564687  -12.644714
 C   -6.137169   30.840796  -12.960556
 O   -7.319044   30.969341  -12.843550
 O   -5.366622   31.866094  -13.369820
 H   -1.741120   28.934329  -11.443888
 H   -1.379978   26.361193  -10.699225
 H   -3.875162   25.471549  -10.060782
 H   -3.980324   30.576208  -11.311732
 H   -5.385271   29.851046  -10.508720
 H   -6.092426   28.742803  -12.578802
 H   -4.660145   29.347931  -13.438843
 H   -4.432777   31.626040  -13.431381
