30 
5cso_ligand_aiqm1.xyz
 O   -2.482450   -1.617532    0.078736
 C   -2.982949   -0.679962    1.026311
 C   -2.254028    0.630017    0.842618
 O   -0.866604    0.468710    1.204214
 C   -0.043134    0.921760    0.162988
 N    1.171235    0.085049    0.116679
 C    1.295198   -1.062642    0.873528
 C    2.427262   -1.792048    0.886393
 C    3.574897   -1.374214    0.099421
 N    3.351053   -0.206283   -0.633427
 C    2.205766    0.530771   -0.685246
 O    2.096326    1.519322   -1.402904
 N    4.724512   -1.921978   -0.006478
 C   -0.887292    0.866105   -1.118523
 O   -0.536464    1.830186   -2.080754
 C   -2.285532    1.171308   -0.587445
 O   -2.514646    2.564616   -0.519489
 H   -2.971638   -2.434898    0.164375
 H   -2.834043   -1.039598    2.047903
 H   -4.051141   -0.501694    0.872121
 H   -2.691693    1.362176    1.524378
 H    0.279523    1.952810    0.340665
 H    0.417702   -1.324530    1.444658
 H    2.491811   -2.688746    1.482990
 H    4.107569    0.115138   -1.217495
 H    4.763485   -2.757599    0.569916
 H   -0.850675   -0.151270   -1.523433
 H    0.430829    1.899384   -2.072690
 H   -3.059043    0.687540   -1.188911
 H   -2.025734    2.948102   -1.255001
