56 
5ctc_ligand_aiqm1.xyz
 N    6.318810   30.341934   23.158791
 C    4.899645   30.341736   25.166877
 N    1.788886   31.342540   28.388940
 C    3.767111   31.600975   27.340292
 C    3.067904   30.571427   26.681859
 C    5.533474   29.614270   24.024095
 C    6.050383   29.471892   20.861878
 C    8.319144   34.473012   16.160821
 C    6.922919   32.981337   14.716782
 C    1.837392   30.469538   27.401338
 C    6.944348   33.847066   15.969208
 C    4.725889   30.814931   19.100122
 C    5.864760   34.920953   15.951087
 C    5.787289   33.098126   27.706000
 C    5.054679   32.020887   26.956208
 C    5.588512   31.373958   25.860575
 C    3.654042   29.918278   25.587873
 N    2.956517   32.024255   28.345953
 O    5.380293   28.407901   23.898072
 C    5.927256   31.688473   22.747086
 C    4.973485   31.626377   21.552647
 C    5.584149   30.846351   20.395252
 C    6.961835   29.590917   22.082285
 C    6.657817   31.628821   19.575473
 N    5.849863   31.415195   18.374329
 C    5.705617   32.243486   17.306774
 O    4.726806   32.253976   16.591027
 O    6.798844   33.012828   17.155595
 H    5.180438   28.863053   21.124947
 H    6.574939   28.961485   20.053279
 H    8.347516   35.053934   17.084281
 H    9.084770   33.697297   16.204580
 H    8.539739   35.136506   15.322794
 H    7.666212   32.186265   14.804658
 H    5.941688   32.539579   14.568340
 H    7.168400   33.597366   13.849259
 H    1.006899   29.802771   27.236552
 H    3.843220   31.457544   19.119185
 H    4.448315   29.823065   18.737582
 H    5.887527   35.487238   16.884826
 H    6.051664   35.606010   15.121741
 H    4.882584   34.474451   15.826667
 H    5.252238   34.049648   27.670016
 H    5.919643   32.832840   28.756430
 H    6.775541   33.252616   27.275571
 H    6.583254   31.651553   25.526856
 H    3.173577   29.097713   25.073140
 H    3.125509   32.737713   29.028021
 H    6.832629   32.239173   22.475687
 H    5.454935   32.200214   23.580582
 H    4.721701   32.638232   21.230655
 H    4.041947   31.139899   21.861696
 H    7.229371   28.612324   22.472472
 H    7.880107   30.121835   21.811453
 H    7.648546   31.172240   19.524993
 H    6.755421   32.684994   19.836498
