48 
5cuq_ligand_ani-2x.xyz
 C    5.818546   -3.020813    4.746101
 C    7.021264   -2.889234    4.011506
 C    8.134557   -2.117726    4.487840
 N    8.045754   -1.486464    5.714250
 C    9.238259   -2.000633    3.672811
 C    9.267690   -2.666679    2.422900
 C   10.488536   -2.534431    1.548620
 N    8.282364   -3.411304    1.974535
 C    7.173172   -3.524968    2.759959
 C    6.106141   -4.331610    2.286732
 C    4.959669   -4.476372    3.014865
 C    4.809071   -3.817144    4.262352
 N    3.593828   -3.996631    4.950388
 C    3.375591   -3.712753    6.280477
 O    4.197696   -3.210166    7.030378
 N    2.112911   -4.037697    6.752289
 C    1.048959   -4.683070    6.071846
 C    0.580556   -5.893775    6.523805
 C   -0.499678   -6.537590    5.868522
 C   -1.047333   -7.793066    6.299674
 N   -0.524985   -8.419396    7.419161
 C   -2.050555   -8.355086    5.543908
 C   -2.548185   -7.673561    4.405185
 C   -3.657470   -8.300752    3.600288
 N   -2.098896   -6.505511    4.007292
 C   -1.086397   -5.940830    4.728687
 C   -0.600572   -4.680234    4.303625
 C    0.437187   -4.067140    4.953880
 H    5.664472   -2.488229    5.676135
 H    7.479391   -1.958991    6.404641
 H    8.917776   -1.144917    6.096270
 H   10.095100   -1.405569    3.984947
 H   10.671835   -1.484665    1.293267
 H   11.379258   -2.905688    2.067883
 H   10.348653   -3.105696    0.629061
 H    6.239735   -4.821268    1.328123
 H    4.154425   -5.101620    2.635548
 H    2.893090   -4.542325    4.469729
 H    2.058681   -3.976447    7.758837
 H    1.078872   -6.374372    7.364075
 H   -0.231803   -7.798871    8.160578
 H   -1.075530   -9.191664    7.772554
 H   -2.476197   -9.318721    5.820345
 H   -3.351595   -9.279469    3.213851
 H   -4.546436   -8.457120    4.221714
 H   -3.918923   -7.652290    2.762032
 H   -1.073412   -4.235953    3.436369
 H    0.800829   -3.095185    4.629665
