48 
5cuq_ligand_aiqm1.xyz
 C    5.746416   -3.048676    4.845341
 C    6.918149   -2.979133    4.051723
 C    8.101205   -2.308483    4.494204
 N    8.124038   -1.671839    5.721629
 C    9.183877   -2.273320    3.644744
 C    9.110882   -2.892469    2.371206
 C   10.304265   -2.830111    1.461645
 N    8.042856   -3.534075    1.939420
 C    6.958902   -3.575451    2.772543
 C    5.805691   -4.258533    2.318827
 C    4.680550   -4.335128    3.096776
 C    4.644888   -3.723946    4.375407
 N    3.441832   -3.826632    5.102389
 C    3.252193   -3.524477    6.426559
 O    4.116354   -3.119114    7.182890
 N    1.952543   -3.697541    6.870831
 C    0.929026   -4.411419    6.192947
 C    0.628331   -5.708808    6.542161
 C   -0.375010   -6.427672    5.846517
 C   -0.737158   -7.771128    6.171551
 N   -0.103797   -8.430213    7.211691
 C   -1.683478   -8.393517    5.390054
 C   -2.281906   -7.699205    4.307142
 C   -3.307238   -8.404024    3.467111
 N   -1.991216   -6.448888    4.002208
 C   -1.046710   -5.818371    4.762247
 C   -0.726026   -4.480253    4.430316
 C    0.228072   -3.785464    5.130966
 H    5.693091   -2.573068    5.810628
 H    7.524232   -2.048786    6.435137
 H    9.044547   -1.456032    6.064736
 H   10.095696   -1.765744    3.946459
 H   10.538666   -1.792313    1.214041
 H   11.183568   -3.250646    1.954818
 H   10.100302   -3.383426    0.546381
 H    5.841854   -4.716131    1.339331
 H    3.805449   -4.865612    2.735069
 H    2.670328   -4.253075    4.619255
 H    1.895277   -3.650530    7.873858
 H    1.201099   -6.175765    7.336847
 H    0.180391   -7.862182    7.991830
 H   -0.558505   -9.279008    7.504392
 H   -1.972997   -9.418911    5.599434
 H   -2.867367   -9.282068    2.990067
 H   -4.134173   -8.753920    4.088297
 H   -3.686342   -7.727638    2.703386
 H   -1.259641   -4.030287    3.603856
 H    0.472894   -2.760669    4.878632
