27 
5cwa_ligand_ani-2x.xyz
 O   47.258079  -45.574065   -5.939294
 C   47.580980  -45.755608   -4.791738
 O   47.084345  -45.025748   -3.787525
 C   48.566116  -46.821414   -4.404262
 C   48.995163  -47.720288   -5.284377
 C   49.961073  -48.820061   -4.976706
 O   48.948349  -46.798130   -3.083386
 C   50.010659  -45.966776   -2.751836
 C   51.236452  -45.990108   -3.385495
 C   52.265801  -45.181439   -2.890525
 C   52.047616  -44.353099   -1.805348
 C   49.764195  -45.119361   -1.662468
 O   48.516935  -45.158912   -1.156241
 C   50.788397  -44.289759   -1.179256
 C   50.502613  -43.406822   -0.017610
 O   49.479184  -43.497093    0.637109
 O   51.398738  -42.475958    0.334587
 H   47.400200  -45.355004   -2.922486
 H   48.601643  -47.610075   -6.290358
 H   50.229828  -48.811142   -3.914929
 H   49.528232  -49.796942   -5.218754
 H   50.871042  -48.728158   -5.579558
 H   51.395756  -46.625670   -4.249452
 H   53.240614  -45.200998   -3.367970
 H   52.883850  -43.763591   -1.432275
 H   48.521734  -44.614479   -0.336451
 H   52.122804  -42.422800   -0.302701
