27 
5cwa_ligand_xtb.xyz
 O   47.302179  -46.581903   -6.744939
 C   47.429986  -46.137713   -5.636975
 O   46.667742  -45.152821   -5.158912
 C   48.463623  -46.639596   -4.672856
 C   49.176645  -47.735157   -4.944608
 C   50.179385  -48.383956   -4.060670
 O   48.502628  -45.910480   -3.497242
 C   49.697312  -45.444883   -3.018871
 C   50.823657  -45.262558   -3.794224
 C   51.982568  -44.747334   -3.225908
 C   52.009514  -44.401697   -1.895959
 C   49.697695  -45.085539   -1.651375
 O   48.567426  -45.273868   -0.972349
 C   50.872449  -44.552979   -1.088669
 C   50.846718  -44.176818    0.341382
 O   49.879383  -44.369914    1.050920
 O   51.927202  -43.596347    0.867234
 H   46.909716  -44.959113   -4.235581
 H   48.991856  -48.187161   -5.908750
 H   51.190007  -48.151155   -4.400108
 H   50.077962  -48.054613   -3.029227
 H   50.058347  -49.464245   -4.104392
 H   50.796886  -45.516925   -4.842599
 H   52.860468  -44.616561   -3.838058
 H   52.934512  -44.016241   -1.489119
 H   48.716579  -45.001813   -0.034215
 H   52.637955  -43.462109    0.226771
