86 
5d0j_ligand_ani-2x.xyz
 N   -0.663718    0.461642    0.706894
 C   -0.455632   -0.198641    2.021974
 C   -1.603431   -1.193244    2.233215
 O   -2.771573   -0.813062    2.177430
 C   -0.447781    0.830604    3.145864
 N   -1.267005   -2.485971    2.467557
 C   -2.280677   -3.520735    2.300292
 C   -2.454975   -3.827148    0.810251
 O   -2.073325   -4.876020    0.298050
 N   -3.002113   -2.810966    0.091531
 C   -2.735749   -2.722977   -1.338654
 C   -1.254356   -2.321146   -1.535688
 O   -0.894318   -1.148356   -1.622495
 C   -3.744228   -1.813199   -2.057855
 C   -3.911252   -0.401145   -1.532791
 C   -3.199216    0.663110   -2.093925
 C   -4.811368   -0.111938   -0.504993
 C   -3.352364    1.963679   -1.628896
 C   -4.971309    1.185407   -0.022926
 C   -4.228277    2.218866   -0.579143
 O   -4.329729    3.517411   -0.114955
 N   -0.387030   -3.366796   -1.550481
 C    1.058453   -3.180135   -1.530833
 C    1.527450   -2.609483   -0.173251
 O    1.034108   -3.024745    0.872673
 C    1.558084   -2.424328   -2.760541
 N    2.529597   -1.693877   -0.201281
 C    3.263562   -1.308664    0.995889
 C    3.131333    0.190101    1.300995
 O    2.672783    0.579932    2.368677
 C    4.728565   -1.763716    0.906384
 C    5.461191   -1.306567   -0.352923
 O    4.889551   -0.982449   -1.392885
 N    6.809811   -1.295731   -0.258187
 N    3.577046    1.056218    0.352165
 C    3.335003    2.473045    0.480928
 C    1.934724    2.844802   -0.055890
 O    1.223055    2.059390   -0.672334
 C    4.434708    3.260508   -0.233483
 N    1.535611    4.121145    0.193924
 C    0.399074    4.731643   -0.476269
 C   -0.935061    4.132204   -0.022887
 O   -1.947331    4.757017   -0.625586
 C    0.528214    4.720509   -2.006330
 O   -1.080818    3.247386    0.790763
 H   -0.910230   -0.201712   -0.048922
 H   -1.407518    1.169772    0.785218
 H    0.184832    0.952576    0.392320
 H    0.499916   -0.731577    1.986564
 H   -0.244560    0.351319    4.109014
 H    0.325603    1.581795    2.968479
 H   -1.425282    1.319951    3.205267
 H   -0.318616   -2.752436    2.217830
 H   -1.965344   -4.431806    2.810959
 H   -3.216888   -3.154615    2.730096
 H   -3.177392   -1.944585    0.594534
 H   -2.853836   -3.736814   -1.731812
 H   -4.711426   -2.327377   -2.010444
 H   -3.461829   -1.776820   -3.117275
 H   -2.494992    0.465161   -2.897431
 H   -5.398664   -0.916819   -0.063520
 H   -2.799876    2.781720   -2.083129
 H   -5.665202    1.384917    0.791884
 H   -4.904827    3.538608    0.660965
 H   -0.733381   -4.221485   -1.124317
 H    1.471411   -4.196663   -1.548039
 H    2.652693   -2.455161   -2.836697
 H    1.146503   -2.900819   -3.654261
 H    1.226656   -1.384888   -2.744822
 H    3.017940   -1.487938   -1.066378
 H    2.787802   -1.815605    1.837547
 H    4.743598   -2.859653    0.915630
 H    5.272445   -1.422298    1.793686
 H    7.296308   -1.591379    0.572313
 H    7.346305   -1.030404   -1.070246
 H    3.796476    0.695805   -0.568738
 H    3.350328    2.703260    1.552327
 H    4.413799    3.068092   -1.312838
 H    4.328109    4.339350   -0.080645
 H    5.409213    2.953954    0.156403
 H    2.160911    4.725797    0.703275
 H    0.364971    5.771892   -0.132435
 H   -2.794940    4.382259   -0.294134
 H    1.470663    5.191913   -2.296143
 H    0.526630    3.694808   -2.381817
 H   -0.300265    5.271802   -2.456241
