86 
5d0j_ligand_xtb.xyz
 N   -0.753101    0.578047    0.721469
 C   -0.595028   -0.169369    1.989309
 C   -1.795900   -1.117555    2.053785
 O   -2.911984   -0.698980    1.782607
 C   -0.592012    0.796773    3.162258
 N   -1.526969   -2.381773    2.403054
 C   -2.510755   -3.438362    2.224976
 C   -2.454268   -3.818386    0.741275
 O   -1.879942   -4.798337    0.315426
 N   -3.022779   -2.884420   -0.051037
 C   -2.658918   -2.798199   -1.453761
 C   -1.185453   -2.364167   -1.466641
 O   -0.827324   -1.201347   -1.310195
 C   -3.596827   -1.851275   -2.221966
 C   -3.754545   -0.503988   -1.573016
 C   -2.952274    0.568204   -1.942647
 C   -4.707445   -0.306969   -0.579693
 C   -3.055719    1.788802   -1.302992
 C   -4.825103    0.910694    0.064410
 C   -3.984342    1.957974   -0.281096
 O   -4.039378    3.172117    0.359090
 N   -0.316357   -3.369736   -1.612869
 C    1.119280   -3.136786   -1.553532
 C    1.473322   -2.465222   -0.216559
 O    0.792971   -2.640104    0.781103
 C    1.578929   -2.363639   -2.789981
 N    2.595390   -1.733253   -0.209616
 C    3.170743   -1.195575    1.003708
 C    2.966894    0.329108    1.126834
 O    2.359887    0.804398    2.067936
 C    4.652447   -1.592922    1.133305
 C    5.491403   -1.339213   -0.109782
 O    5.042545   -0.879929   -1.148293
 N    6.780507   -1.678278    0.016672
 N    3.521991    1.068939    0.161221
 C    3.400385    2.509883    0.174575
 C    1.945214    2.910994   -0.124285
 O    1.135690    2.106790   -0.551155
 C    4.341156    3.109018   -0.865329
 N    1.679074    4.204990    0.108609
 C    0.466333    4.889317   -0.309630
 C   -0.793785    4.225134    0.248724
 O   -1.881290    4.797312   -0.223399
 C    0.387257    4.965498   -1.838364
 O   -0.801527    3.301063    1.020373
 H   -0.787924   -0.066269   -0.104516
 H   -1.634630    1.106096    0.758052
 H    0.010220    1.262221    0.543915
 H    0.338618   -0.729739    1.953598
 H   -0.524064    0.249670    4.097592
 H    0.266839    1.455613    3.081160
 H   -1.503359    1.388206    3.165850
 H   -0.561783   -2.683256    2.376507
 H   -2.242769   -4.291374    2.846282
 H   -3.495588   -3.056410    2.498615
 H   -3.392021   -2.037678    0.371397
 H   -2.734274   -3.802564   -1.885215
 H   -4.571003   -2.338579   -2.288251
 H   -3.199999   -1.734983   -3.231425
 H   -2.230567    0.450692   -2.734968
 H   -5.380491   -1.107214   -0.310190
 H   -2.430728    2.614018   -1.603519
 H   -5.566157    1.043039    0.839127
 H   -4.749464    3.164675    1.012424
 H   -0.655307   -4.312650   -1.473103
 H    1.596802   -4.122685   -1.536805
 H    2.660242   -2.388305   -2.893599
 H    1.149933   -2.827370   -3.675274
 H    1.237884   -1.332905   -2.740366
 H    3.125465   -1.567663   -1.054340
 H    2.620350   -1.638815    1.843047
 H    4.710927   -2.662101    1.354116
 H    5.090227   -1.054913    1.976416
 H    7.157069   -2.067706    0.863140
 H    7.396896   -1.561274   -0.772372
 H    3.961517    0.621944   -0.635746
 H    3.650514    2.861194    1.184475
 H    4.059862    2.771766   -1.860640
 H    4.308780    4.194677   -0.844937
 H    5.362305    2.792728   -0.666994
 H    2.408872    4.777223    0.501337
 H    0.496106    5.901915    0.104340
 H   -2.699155    4.328700    0.070682
 H    1.253983    5.492991   -2.228305
 H    0.367037    3.962200   -2.256789
 H   -0.512233    5.495095   -2.135595
