86 
5d0j_ligand_aiqm1.xyz
 N   -0.888579    0.523097    0.774847
 C   -0.681511   -0.150092    2.112077
 C   -1.827979   -1.158846    2.215250
 O   -2.983618   -0.774596    2.058280
 C   -0.743961    0.894248    3.212129
 N   -1.498013   -2.442120    2.428015
 C   -2.477981   -3.494143    2.151480
 C   -2.484679   -3.785098    0.644522
 O   -2.026830   -4.810914    0.167670
 N   -2.957700   -2.755317   -0.107874
 C   -2.649954   -2.652245   -1.528704
 C   -1.153528   -2.277858   -1.637789
 O   -0.762439   -1.112204   -1.583821
 C   -3.584002   -1.660117   -2.242129
 C   -3.752655   -0.314614   -1.573225
 C   -2.937450    0.773130   -1.896073
 C   -4.737146   -0.123957   -0.601876
 C   -3.047643    1.989695   -1.229083
 C   -4.855743    1.082794    0.085111
 C   -3.996182    2.130440   -0.224503
 O   -4.025131    3.335361    0.450939
 N   -0.299355   -3.312942   -1.734853
 C    1.136023   -3.113207   -1.665666
 C    1.529966   -2.434042   -0.336441
 O    0.752388   -2.374872    0.611791
 C    1.658895   -2.400505   -2.910475
 N    2.789354   -1.962657   -0.237217
 C    3.259255   -1.344614    0.992309
 C    2.962664    0.169754    1.062374
 O    2.253456    0.608353    1.959384
 C    4.734631   -1.679599    1.241637
 C    5.686933   -1.370499    0.096181
 O    5.303059   -1.024416   -1.016939
 N    6.989428   -1.504545    0.390502
 N    3.541976    0.956416    0.140840
 C    3.356165    2.390758    0.141474
 C    1.913956    2.779499   -0.228686
 O    1.090610    1.970654   -0.636872
 C    4.365013    3.012491   -0.821710
 N    1.641254    4.091438   -0.051427
 C    0.412823    4.743539   -0.476168
 C   -0.812155    4.241466    0.269416
 O   -1.877597    4.966536   -0.041209
 C    0.193707    4.633877   -1.989921
 O   -0.833324    3.301159    1.026435
 H   -0.691376   -0.124446   -0.009145
 H   -1.873653    0.812985    0.711154
 H   -0.311024    1.366469    0.664905
 H    0.285045   -0.640175    2.102462
 H   -0.600419    0.416758    4.180236
 H    0.049999    1.621543    3.068338
 H   -1.707185    1.402480    3.208857
 H   -0.524707   -2.681762    2.293984
 H   -2.193650   -4.400025    2.676624
 H   -3.451008   -3.146980    2.489047
 H   -3.220735   -1.910907    0.381883
 H   -2.783969   -3.636866   -1.973257
 H   -4.559031   -2.145769   -2.307405
 H   -3.215582   -1.531071   -3.259667
 H   -2.168698    0.654540   -2.646718
 H   -5.416270   -0.929251   -0.345040
 H   -2.404554    2.821606   -1.488639
 H   -5.604794    1.184055    0.861786
 H   -4.739911    3.328865    1.088352
 H   -0.661403   -4.221846   -1.479817
 H    1.576691   -4.109232   -1.612008
 H    2.744668   -2.355934   -2.921611
 H    1.343935   -2.954200   -3.792890
 H    1.257014   -1.392153   -2.969704
 H    3.401099   -1.897001   -1.035526
 H    2.680929   -1.774591    1.807428
 H    4.808733   -2.751664    1.440995
 H    5.074971   -1.159513    2.137832
 H    7.297267   -1.823672    1.290752
 H    7.665323   -1.369409   -0.341973
 H    4.064588    0.523515   -0.608466
 H    3.531507    2.770062    1.151351
 H    4.182268    2.659062   -1.835709
 H    4.314366    4.100127   -0.824644
 H    5.371906    2.722597   -0.526388
 H    2.363426    4.668446    0.339552
 H    0.508345    5.796560   -0.216100
 H   -2.668998    4.543283    0.343330
 H    1.031998    5.087772   -2.515095
 H    0.126875    3.587747   -2.284765
 H   -0.723058    5.144788   -2.270302
