58 
5d10_ligand_aiqm1.xyz
 C  -13.084513  -39.796565    4.622131
 C  -13.109826  -38.651243    5.423831
 C  -11.885197  -38.192524    5.918678
 N  -10.721803  -38.803235    5.638688
 N  -11.920222  -40.414042    4.325719
 C  -14.084819  -41.201570    2.932082
 C  -15.273133  -42.129870    2.796904
 N  -16.506819  -41.361053    2.782032
 C  -17.652235  -42.225916    2.563520
 C  -16.639698  -40.646283    4.036164
 C  -15.485680  -39.681554    4.242811
 N  -14.218635  -40.388681    4.137879
 N  -11.861268  -37.079458    6.709793
 C  -10.769352  -36.475878    7.327663
 C   -9.389916  -36.751695    7.210147
 C   -8.786225  -35.835394    8.047854
 C   -7.356078  -35.596974    8.383284
 N   -9.784027  -35.099495    8.586437
 N  -11.012657  -35.469144    8.163768
 C  -10.843372  -39.869185    4.854712
 O   -9.703483  -40.517938    4.509021
 C   -8.501838  -40.108739    5.062981
 C   -8.256014  -40.248677    6.424349
 C   -7.012566  -39.885260    6.932909
 C   -7.519706  -39.638493    4.202050
 C   -6.272266  -39.295996    4.712623
 C   -6.012857  -39.407992    6.080607
 N   -4.729323  -39.066159    6.595785
 C   -3.669265  -39.913573    6.770481
 O   -2.603522  -39.495353    7.189920
 C   -3.897657  -41.347810    6.426639
 C   -2.916067  -42.239097    6.591712
 H  -14.016050  -38.118294    5.658773
 H  -13.161094  -41.765336    3.008434
 H  -14.015017  -40.548763    2.053330
 H  -15.272885  -42.859107    3.626610
 H  -15.193595  -42.684289    1.859233
 H  -18.563602  -41.627197    2.530147
 H  -17.546322  -42.738632    1.607000
 H  -17.760240  -42.983470    3.356824
 H  -17.574888  -40.081474    4.023396
 H  -16.679920  -41.349083    4.888272
 H  -15.578725  -39.261018    5.243801
 H  -15.537698  -38.859149    3.518078
 H  -12.753049  -36.671259    6.932550
 H   -8.920348  -37.500533    6.603604
 H   -7.032577  -34.606165    8.062869
 H   -7.181240  -35.683411    9.455995
 H   -6.735145  -36.337820    7.877044
 H   -9.697143  -34.342455    9.237885
 H   -9.050828  -40.600605    7.069635
 H   -6.806319  -39.975274    7.992877
 H   -7.744652  -39.551558    3.147890
 H   -5.491062  -38.937521    4.053899
 H   -4.524160  -38.102834    6.802253
 H   -4.866298  -41.642254    6.040630
 H   -3.058178  -43.282774    6.346647
 H   -1.956925  -41.920877    6.977153
