47 
5d1r_ligand_xtb.xyz
 C  -16.291743   -6.570695  159.974116
 C  -16.568489   -3.885471  164.008556
 C  -17.993283   -3.841882  164.550121
 C  -20.180926  -12.095010  154.209778
 C  -18.848274  -12.487830  154.835710
 C  -17.822190  -11.360763  154.742730
 C  -16.491132  -11.749924  155.381538
 C  -15.388782  -10.709197  155.177548
 C  -15.675001   -9.334973  155.785276
 C  -15.844562   -9.363391  157.302467
 C  -15.976553   -7.957422  157.883529
 C  -16.158633   -7.977702  159.399217
 C  -16.462191   -6.589486  161.490747
 C  -16.729841   -5.206691  162.042720
 O  -17.222985   -4.297863  161.427648
 O  -16.349728   -5.129424  163.319752
 C  -15.528218   -3.798976  165.115573
 H  -17.152877   -6.067608  159.531286
 H  -15.405422   -5.985944  159.719825
 H  -16.429564   -3.073532  163.282722
 H  -18.703977   -3.903386  163.729513
 H  -18.160335   -4.676574  165.227279
 H  -18.156254   -2.910705  165.085047
 H  -20.598134  -11.225836  154.713975
 H  -20.050095  -11.849033  153.158086
 H  -20.896074  -12.911030  154.284780
 H  -18.458175  -13.374772  154.330767
 H  -19.003233  -12.748029  155.885606
 H  -18.225879  -10.476160  155.238074
 H  -17.658130  -11.109061  153.692052
 H  -16.153628  -12.691728  154.940377
 H  -16.638468  -11.928166  156.448152
 H  -15.221248  -10.583893  154.104689
 H  -14.463238  -11.096990  155.611097
 H  -16.568881   -8.907436  155.328331
 H  -14.839050   -8.674798  155.539281
 H  -14.981890   -9.861008  157.752412
 H  -16.734343   -9.938246  157.564321
 H  -16.831883   -7.455796  157.425184
 H  -15.084375   -7.377724  157.635636
 H  -17.051432   -8.556768  159.647395
 H  -15.302477   -8.478020  159.858555
 H  -15.584426   -7.002407  161.989121
 H  -17.320252   -7.212406  161.759218
 H  -15.663789   -4.619896  165.814947
 H  -14.526892   -3.860275  164.697581
 H  -15.632946   -2.857272  165.646364
