35 
5d29_ligand_ani-2x.xyz
 C   -2.094742   -0.926051   -0.928132
 C   -3.263654   -1.165544   -0.220771
 C   -3.783540   -0.190632    0.631474
 C   -5.036849   -0.504160    1.363710
 O   -5.645639   -1.546677    1.276763
 O   -5.456251    0.500991    2.160581
 C   -3.124739    1.032944    0.770933
 C   -1.957334    1.267719    0.056931
 C   -1.424390    0.296051   -0.798465
 C   -0.141403    0.561486   -1.549764
 C    1.128032    0.084333   -0.816365
 C    1.190696   -1.426034   -0.807220
 O    1.587628   -1.937824    0.380367
 O    0.966931   -2.131544   -1.761929
 C    2.399949    0.620624   -1.501594
 C    3.714461    0.237545   -0.804527
 C    3.778073    0.821127    0.587357
 O    3.824155    2.026780    0.813468
 N    3.805145   -0.067019    1.616631
 O    3.667525    0.491383    2.882563
 H   -1.686320   -1.692808   -1.582052
 H   -3.795558   -2.106881   -0.314733
 H   -6.271359    0.176003    2.576540
 H   -3.532577    1.790701    1.432749
 H   -1.460254    2.230056    0.162942
 H   -0.045949    1.639544   -1.725599
 H   -0.171902    0.071549   -2.529514
 H    1.095112    0.437547    0.220028
 H    1.610752   -2.903469    0.262955
 H    2.422280    0.261341   -2.537167
 H    2.345104    1.714749   -1.530941
 H    3.859609   -0.846882   -0.778914
 H    4.550300    0.667489   -1.366527
 H    3.281104   -0.933175    1.552064
 H    3.665802    1.448636    2.668355
