35 
5d29_ligand_aiqm1.xyz
 C   -2.154132   -0.789247   -1.173971
 C   -3.306021   -1.083448   -0.457171
 C   -3.702349   -0.257250    0.596039
 C   -4.939631   -0.613970    1.334453
 O   -5.633932   -1.571676    1.099818
 O   -5.223146    0.262181    2.324605
 C   -2.941612    0.865087    0.927573
 C   -1.788541    1.153232    0.207700
 C   -1.381180    0.331392   -0.849285
 C   -0.107242    0.626391   -1.597572
 C    1.132703    0.154686   -0.821160
 C    1.070160   -1.344982   -0.665426
 O    1.277031   -1.751625    0.608895
 O    0.886038   -2.121824   -1.564548
 C    2.431655    0.521028   -1.553853
 C    3.686555    0.092722   -0.788929
 C    3.777196    0.828853    0.522010
 O    3.974420    2.035338    0.608195
 N    3.648953    0.074371    1.640931
 O    3.517961    0.798191    2.824931
 H   -1.836706   -1.438491   -1.981068
 H   -3.907514   -1.949282   -0.698491
 H   -6.034901   -0.055504    2.737805
 H   -3.255031    1.499348    1.744870
 H   -1.199647    2.025920    0.469754
 H   -0.011927    1.699926   -1.763709
 H   -0.119109    0.130603   -2.568505
 H    1.124533    0.604956    0.171201
 H    1.182703   -2.712504    0.610627
 H    2.422935    0.046654   -2.536026
 H    2.457787    1.601400   -1.701922
 H    3.687459   -0.984856   -0.624323
 H    4.570141    0.351411   -1.370092
 H    3.051476   -0.741142    1.645463
 H    3.643117    1.712013    2.503381
