48 
5d3t_ligand_aiqm1.xyz
 C   10.821822    6.193870    2.380976
 C   11.176177    6.734667    0.992886
 C   11.190990    5.634494   -0.033194
 C   12.244404    4.719861   -0.390578
 C   11.726316    3.835332   -1.335240
 C    6.468246    7.887532   -1.996040
 C    6.617355    6.396817   -1.767216
 C    7.050958    8.798853   -1.107663
 C    4.857663   10.318862   -4.458452
 C   12.344615    2.678839   -2.047246
 C   13.634170    4.613707    0.092776
 C   14.167128    5.661040    1.038175
 C   10.091282    5.282306   -0.789796
 C    8.726714    5.839662   -0.712791
 N   10.443112    4.205955   -1.584523
 N    8.001199    5.928402   -1.876940
 O   14.357948    3.702110   -0.277268
 O    8.254528    6.157264    0.372979
 C    5.762801    8.373884   -3.096074
 C    5.625228    9.747661   -3.305760
 C    6.197747   10.645228   -2.405916
 C    6.911819   10.171241   -1.313869
 O    4.461696   11.469006   -4.463032
 N    4.605258    9.464411   -5.500700
 C    8.618215    6.141504   -3.179050
 H   10.852525    6.988421    3.129191
 H    9.817038    5.775113    2.365461
 H   11.517129    5.408926    2.687254
 H   12.132500    7.255734    1.010903
 H   10.428399    7.476484    0.703872
 H    6.263693    6.130034   -0.773694
 H    6.021697    5.852642   -2.507761
 H    7.592224    8.421409   -0.249051
 H   13.273159    2.980609   -2.525745
 H   12.603895    1.893373   -1.340024
 H   11.665579    2.272365   -2.800476
 H   15.188589    5.401698    1.306092
 H   14.160682    6.639958    0.555693
 H   13.558606    5.737165    1.937957
 H    9.797391    3.691014   -2.157793
 H    5.279199    7.671350   -3.767156
 H    6.060276   11.702889   -2.577721
 H    7.352571   10.868493   -0.612805
 H    4.221592    9.899710   -6.321994
 H    5.192361    8.664137   -5.646137
 H    9.644460    5.786051   -3.174149
 H    8.050570    5.605294   -3.942227
 H    8.619473    7.205623   -3.436132
