55 
5d47_ligand_aiqm1.xyz
 O    6.773017    5.785979   14.177081
 C    6.694940    5.865786   15.371110
 O    5.873882    5.043647   16.060636
 C    7.482430    6.865201   16.194897
 C    6.720174    8.181695   16.435207
 N    5.571774    8.016902   17.298070
 C    4.257613    7.787587   16.894346
 C    3.810701    7.949816   15.498106
 C    3.940036    9.176105   14.836037
 C    3.485285    9.313917   13.526964
 C    2.904750    8.232027   12.869199
 C    2.777715    7.009146   13.525049
 C    3.226089    6.866307   14.833674
 C    3.516035    7.372376   17.971807
 C    4.398595    7.339393   19.110525
 C    4.214005    7.018444   20.462258
 C    5.297441    7.096940   21.330715
 C    5.190719    6.775492   22.785961
 C    4.849520    7.859219   23.784852
 C    3.869512    6.756762   23.502309
 C    6.562842    7.493509   20.838246
 C    6.773033    7.816253   19.506925
 C    5.667036    7.741274   18.650184
 C    2.078016    7.057152   17.952934
 C    1.146742    7.961792   17.451155
 C   -0.207276    7.629118   17.445808
 N   -0.673374    6.472115   17.909485
 C    0.215603    5.594060   18.394971
 C    1.586612    5.833264   18.436017
 O    2.509199    4.952899   18.914303
 C    2.024384    3.704973   19.379322
 H    5.864842    5.294135   16.991315
 H    8.382994    7.096158   15.633112
 H    7.767886    6.426288   17.152493
 H    6.396548    8.594060   15.483292
 H    7.396241    8.902536   16.896956
 H    4.391098   10.022089   15.341644
 H    3.589336   10.266151   13.023240
 H    2.558512    8.341059   11.850279
 H    2.334983    6.163130   13.016456
 H    3.137017    5.915705   15.343740
 H    3.245241    6.683932   20.813234
 H    5.921379    6.053403   23.134534
 H    4.620451    8.838035   23.388010
 H    5.369350    7.855838   24.732928
 H    3.716582    5.999236   24.257479
 H    2.988937    7.012330   22.929409
 H    7.389689    7.545222   21.534693
 H    7.749260    8.127713   19.155769
 H    1.481548    8.913439   17.058323
 H   -0.941040    8.321721   17.052736
 H   -0.201488    4.662776   18.756643
 H    1.346917    3.833736   20.226522
 H    1.519098    3.152460   18.584200
 H    2.903470    3.153895   19.699041
