65 
5d48_ligand_xtb.xyz
 O    5.727895    8.075387   14.161317
 C    5.952078    7.229773   14.986928
 O    5.539477    5.968860   14.869578
 C    6.725838    7.470368   16.260593
 C    6.025931    8.556287   17.103438
 N    4.949332    8.020129   17.885221
 C    3.692527    7.663350   17.430860
 C    3.024458    6.965012   18.411843
 C    1.667217    6.454046   18.329950
 C    0.524145    7.147505   17.968915
 C    0.313482    8.568564   17.597167
 N   -0.486036    6.249401   18.017026
 N   -0.074273    5.030558   18.373610
 C    1.227637    5.128546   18.573059
 C    2.053591    3.953840   18.961589
 C    3.907329    6.868908   19.529064
 C    3.781468    6.316615   20.802047
 C    4.852184    6.382099   21.669822
 C    4.771969    5.791586   23.035681
 C    3.552486    5.989095   23.882887
 C    4.829802    6.686935   24.239690
 C    6.046032    6.999248   21.267434
 C    6.189607    7.570831   20.022313
 C    5.107748    7.513986   19.151771
 C    3.176623    7.968958   16.098968
 C    2.590084    6.944842   15.359893
 C    2.052002    7.215175   14.114730
 C    2.101927    8.490819   13.591991
 C    2.691472    9.527620   14.318053
 C    3.214710    9.259665   15.577572
 O    2.657289   10.748003   13.723332
 C    3.501278   11.792723   14.189986
 C    4.961122   11.502783   13.840150
 C    3.009992   13.069646   13.516266
 H    5.007043    5.853273   14.066052
 H    6.808715    6.541685   16.824142
 H    7.720417    7.822995   15.983914
 H    6.745901    9.005989   17.790175
 H    5.660181    9.331997   16.427589
 H   -0.635944    8.930866   17.988954
 H    1.120399    9.175453   17.999689
 H    0.308963    8.686887   16.512607
 H   -1.459153    6.410414   17.813397
 H    1.716697    3.071806   18.421928
 H    3.101297    4.143415   18.741227
 H    1.954492    3.750654   20.027326
 H    2.858100    5.844311   21.099043
 H    5.278776    4.835331   23.123997
 H    2.749583    6.589109   23.482314
 H    3.217398    5.174156   24.506914
 H    5.377653    6.354263   25.108661
 H    4.885603    7.751945   24.070534
 H    6.870906    7.028650   21.964629
 H    7.119912    8.045292   19.745585
 H    2.566571    5.944673   15.764412
 H    1.595398    6.420461   13.542330
 H    1.692264    8.715995   12.620225
 H    3.629519   10.052565   16.180971
 H    3.389072   11.905448   15.278705
 H    5.615564   12.218446   14.331014
 H    5.237347   10.494877   14.142631
 H    5.100367   11.575773   12.764393
 H    3.624826   13.911372   13.822064
 H    3.066397   12.958471   12.436847
 H    1.976309   13.264264   13.789987
