35 
5d4a_ligand_ani-2x.xyz
 O    5.561653    7.980576   15.332456
 C    6.202899    7.086626   15.816548
 O    7.093734    6.403315   15.060986
 C    6.095662    6.639077   17.264876
 C    5.073922    7.467923   18.043623
 N    5.009969    7.090359   19.440986
 C    5.960622    7.478966   20.371365
 C    7.166861    8.163103   20.184385
 C    7.937525    8.418840   21.306197
 C    7.517657    8.014267   22.588246
 C    6.319013    7.355016   22.771708
 C    5.514325    7.084253   21.651342
 C    4.239532    6.466140   21.457591
 C    3.958380    6.480927   20.116593
 C    2.764008    5.935613   19.437925
 C    1.495982    6.286858   19.909069
 C    0.348567    5.791961   19.300641
 C    2.852687    5.037479   18.368644
 C    1.706738    4.532402   17.766316
 C    0.449812    4.914362   18.225524
 H    7.532205    5.722407   15.589101
 H    7.080794    6.708774   17.741826
 H    5.820603    5.577434   17.293312
 H    4.083270    7.360674   17.597131
 H    5.339678    8.527585   17.972449
 H    7.484193    8.488838   19.197935
 H    8.883280    8.942889   21.197034
 H    8.148334    8.230329   23.446449
 H    5.999960    7.052301   23.765892
 H    3.603745    6.037019   22.221662
 H    1.413442    6.970019   20.751586
 H   -0.628778    6.089157   19.670903
 H    3.829658    4.717545   18.016781
 H    1.799541    3.841140   16.933805
 H   -0.447274    4.524425   17.751714
