53 
5d6f_ligand_ani-2x.xyz
 O   -1.740070   -2.245015   -0.318525
 C   -5.375402    1.194471    3.867349
 C   -4.323903    1.456740    1.763509
 N   -1.604586    0.085129   -2.298712
 C   -4.592718    0.139524    1.396947
 C   -4.174173   -0.325153    0.149881
 O    2.301125    0.086759   -0.612085
 C   -3.493263    0.499917   -0.737523
 O    4.451582   -0.505904   -1.065531
 C   -3.230449    1.817342   -0.355982
 O   -4.684304    2.014055    2.950215
 C   -3.639470    2.294023    0.877083
 C    3.635061    0.064144   -0.368851
 N    3.911793    0.756603    0.769806
 C    5.296981    1.029909    1.128551
 C    5.898741    2.157960    0.289379
 C    5.380558    1.322165    2.621272
 C    1.898581   -0.569587   -1.842055
 C    1.828781   -2.088127   -1.621156
 C    0.653955   -2.457790   -0.702033
 C   -0.728185   -2.116415   -1.315608
 C   -1.120432   -3.121731   -2.404286
 C   -0.616478   -0.723358   -1.843138
 C    0.541364   -0.074737   -2.200600
 N    0.215128    1.060187   -2.866517
 N   -1.075847    1.151927   -2.915071
 C   -3.042897   -0.000937   -2.094989
 H   -1.682450   -1.473787    0.264413
 H   -5.569847    1.816544    4.742161
 H   -6.328503    0.841753    3.451314
 H   -4.771718    0.326372    4.163754
 H   -5.120356   -0.533215    2.062874
 H   -4.374668   -1.362099   -0.117593
 H   -2.688541    2.467905   -1.039732
 H   -3.442386    3.316685    1.184264
 H    3.183788    1.371437    1.102388
 H    5.841050    0.108587    0.897101
 H    5.850670    1.903566   -0.773470
 H    5.356288    3.098446    0.448632
 H    6.949266    2.316939    0.558080
 H    4.820589    2.235665    2.858801
 H    4.955744    0.494526    3.197001
 H    6.418650    1.471229    2.939229
 H    2.621882   -0.309474   -2.618057
 H    1.717152   -2.564608   -2.602873
 H    2.778343   -2.426388   -1.200979
 H    0.759188   -1.898129    0.235959
 H    0.672652   -3.522717   -0.448627
 H   -0.377927   -3.175788   -3.207051
 H   -2.081924   -2.840611   -2.845469
 H   -1.229223   -4.111603   -1.952544
 H   -3.341021   -1.043374   -2.226561
 H   -3.487773    0.589939   -2.900243
