45 
5d7c_ligand_aiqm1.xyz
 O    7.765696    7.883438   -1.978721
 C   11.119624    8.207382   -2.435329
 C    5.913499    2.156314    0.119328
 C    6.037752    4.138246   -0.946786
 C    4.748479    4.002007   -1.500735
 C    5.596444    6.003599   -2.126796
 C    6.545221    5.408887   -1.360136
 C    8.344630    7.064336   -1.282207
 C   10.353222    8.440932   -1.139135
 N    9.574166    7.285509   -0.718625
 C    4.603271    1.923845   -0.352422
 C    3.997197    2.875804   -1.171490
 C    1.908237   -0.490153    0.731457
 N    7.813619    5.836564   -0.974641
 C    2.667260   -1.656400    0.757212
 C    4.547368   -0.544726    0.092301
 C    3.887770    0.686808    0.037087
 N    6.631312    3.242661   -0.145874
 C    2.529245    0.697515    0.362548
 N    3.964790   -1.695260    0.440439
 N    4.498666    5.140264   -2.240938
 C    3.393406    5.431871   -3.055149
 N    3.115180    6.724475   -3.204845
 C    2.073898    7.050107   -3.980038
 C    1.276968    6.119644   -4.633916
 C    1.598776    4.773642   -4.490273
 C    2.679470    4.412731   -3.695508
 H   11.816792    7.372108   -2.337279
 H   10.427017    7.989025   -3.246591
 H   11.691223    9.097246   -2.701573
 H    6.370326    1.423529    0.774221
 H    5.585746    6.966576   -2.602668
 H    9.651805    9.261899   -1.261241
 H   11.040961    8.695631   -0.329539
 H   10.084230    6.480972   -0.395549
 H    2.980919    2.729625   -1.516915
 H    0.859741   -0.512745    0.996886
 H    8.287351    5.235593   -0.320786
 H    2.220014   -2.600664    1.041738
 H    5.596936   -0.606790   -0.175661
 H    1.975817    1.628715    0.337802
 H    1.879852    8.110198   -4.077991
 H    0.446093    6.441582   -5.244695
 H    1.028086    4.009817   -5.000663
 H    2.979627    3.379639   -3.597704
