31 
5d9l_ligand_dft.xyz
 C   -1.593873   11.348376   27.636977
 C   -0.549435   10.456652   28.025165
 C   -2.785522   11.101216   26.804744
 O   -6.112094   10.438200   24.379798
 O    0.134185    4.954289   26.996222
 C   -3.805972   10.191981   24.795486
 C    1.036118    7.107227   27.318682
 C   -1.355666    6.808219   27.432345
 C   -5.051446   10.677124   25.198232
 C   -0.081016    6.274267   27.247441
 C   -1.222151   12.559538   28.183567
 C   -0.402441    9.015611   27.746555
 N    0.378019   11.086871   28.743920
 C   -4.040304   11.573991   27.193305
 C   -2.691326   10.408617   25.589648
 N   -0.049876   12.353751   28.821951
 C    0.870354    8.461298   27.564023
 C   -1.509409    8.166680   27.683681
 C   -5.166050   11.372497   26.400250
 H   -6.904571   10.827599   24.767883
 H   -0.714148    4.495845   26.974527
 H   -3.730094    9.655650   23.855505
 H    2.021983    6.677821   27.174672
 H   -2.231148    6.163617   27.387913
 H   -1.688411   13.532798   28.132328
 H   -4.142847   12.097844   28.139786
 H   -1.724994   10.033958   25.266159
 H    1.737981    9.110917   27.619720
 H   -2.506403    8.566621   27.837841
 H   -6.133911   11.748653   26.725554
 H    0.502469   13.022272   29.333124
