30 
5d9p_ligand_aiqm1.xyz
 C    0.598278   -0.174348    0.022965
 C   -0.382893   -1.288477    0.403850
 C   -1.661442   -1.081959   -0.392379
 C   -2.212470    0.306185   -0.147405
 C   -1.152668    1.338394   -0.512768
 C   -1.588374    2.754520   -0.210170
 C    2.846501   -1.025971    0.577207
 C    4.115808   -0.739170    1.334619
 N    1.812880   -0.182622    0.824827
 O   -2.671357   -2.010044   -0.041515
 O    0.077149   -2.591730    0.118841
 O   -3.349426    0.559735   -0.946155
 O    0.033727    1.097329    0.261626
 O   -0.630850    3.705162   -0.635373
 O    2.748702   -1.957989   -0.214126
 H    0.870198   -0.297661   -1.036087
 H   -0.605878   -1.199343    1.476856
 H   -1.416945   -1.181713   -1.458693
 H   -2.457021    0.403137    0.920597
 H   -0.916827    1.245758   -1.582646
 H   -1.793154    2.848008    0.863385
 H   -2.504323    2.958856   -0.759503
 H    4.604492   -1.680346    1.568813
 H    4.781835   -0.163382    0.691469
 H    3.933925   -0.174310    2.248455
 H    1.947933    0.619681    1.418556
 H   -2.284364   -2.886369   -0.105820
 H    1.019243   -2.566555   -0.110053
 H   -3.933672   -0.197439   -0.852483
 H    0.171393    3.562563   -0.127793
