44 
5dbm_ligand_aiqm1.xyz
 C    4.918066   -0.465798   -0.800804
 C    3.888049   -0.618983    0.317089
 C    4.207186    0.322482    1.469299
 C    3.829500   -2.063686    0.809655
 N    2.564813   -0.283145   -0.246131
 C    1.706713    0.699861    0.098496
 N    2.101119   -1.018961   -1.270408
 C    0.916764   -0.487586   -1.578553
 C    0.604022    0.605444   -0.744430
 C   -0.619688    1.435663   -0.767712
 C   -1.869313    0.866115   -0.439412
 N   -1.899911   -0.499610   -0.146067
 C   -2.856330   -1.085249    0.772436
 C   -2.335125   -2.454221    1.177756
 C   -4.208500   -1.209436    0.074740
 C   -4.996273    0.069736   -0.020916
 O   -6.212463    0.074378    0.072149
 N   -4.343743    1.266543   -0.198884
 C   -3.021478    1.670568   -0.497915
 C   -2.891205    3.017487   -0.855086
 C   -1.662407    3.576484   -1.165057
 C   -0.525957    2.779927   -1.121262
 H    4.930559    0.562847   -1.167051
 H    5.911242   -0.721539   -0.425968
 H    4.672507   -1.128279   -1.629380
 H    4.254026    1.360492    1.135986
 H    3.470600    0.235613    2.270045
 H    5.182608    0.055116    1.877159
 H    3.077494   -2.167607    1.595025
 H    3.571920   -2.730529   -0.011555
 H    4.802063   -2.355983    1.210327
 H    1.914132    1.382805    0.904481
 H    0.323741   -0.905264   -2.376723
 H   -0.972292   -0.868973   -0.012487
 H   -2.972890   -0.469867    1.679193
 H   -3.030400   -2.948072    1.856443
 H   -1.369774   -2.368609    1.679897
 H   -2.211189   -3.078972    0.291821
 H   -4.853372   -1.917534    0.592694
 H   -4.038497   -1.584809   -0.938419
 H   -5.016853    2.013815   -0.259571
 H   -3.787408    3.627530   -0.891650
 H   -1.597959    4.618977   -1.440774
 H    0.445502    3.190931   -1.363978
