44 
5dbm_ligand_xtb.xyz
 C    4.538926   -1.668982   -0.337180
 C    3.982757   -0.417031    0.336530
 C    4.774877    0.816244   -0.109181
 C    4.036758   -0.570170    1.860089
 N    2.594738   -0.254118   -0.070098
 C    1.756071    0.735658    0.295368
 N    2.002854   -1.112986   -0.889735
 C    0.767822   -0.683469   -1.052091
 C    0.539150    0.498283   -0.316736
 C   -0.661778    1.333846   -0.255077
 C   -1.932401    0.761225   -0.013355
 N   -1.971872   -0.564835    0.329464
 C   -3.105518   -1.456722    0.286369
 C   -2.602445   -2.876367    0.037333
 C   -4.098993   -1.023670   -0.805222
 C   -5.001670    0.052864   -0.257853
 O   -6.202350   -0.077654   -0.125541
 N   -4.376502    1.184755    0.147119
 C   -3.050296    1.613903   -0.039049
 C   -2.874068    2.983195   -0.222620
 C   -1.623627    3.534636   -0.407668
 C   -0.521010    2.700433   -0.435392
 H    4.476525   -1.574011   -1.417196
 H    5.577092   -1.811442   -0.050455
 H    3.964444   -2.542282   -0.042652
 H    4.690824    0.946887   -1.185681
 H    4.405974    1.715413    0.378110
 H    5.824341    0.694243    0.144707
 H    3.652498    0.317631    2.356356
 H    3.442304   -1.425569    2.173174
 H    5.063343   -0.725682    2.180443
 H    2.044161    1.524460    0.959395
 H    0.101878   -1.207038   -1.710521
 H   -1.073103   -1.020385    0.283818
 H   -3.626182   -1.436835    1.257358
 H   -3.429979   -3.579506    0.070027
 H   -1.880836   -3.161163    0.800207
 H   -2.126340   -2.944159   -0.938910
 H   -4.722769   -1.863673   -1.109177
 H   -3.548566   -0.651358   -1.671904
 H   -5.011723    1.912241    0.454319
 H   -3.748239    3.619041   -0.217933
 H   -1.511859    4.598915   -0.542607
 H    0.464385    3.105333   -0.611852
