45 
5dcz_ligand_dft.xyz
 C    0.957349   -2.232762   -0.132786
 C    5.472775    0.938789    1.898115
 C    4.491773    1.289754    0.778621
 C    0.045123   -1.172002   -0.219460
 C    2.785536   -0.730055   -0.607774
 C    2.307568   -2.014193   -0.339290
 O    4.844173   -1.408040   -1.549812
 C    4.248937   -0.564788   -0.892395
 N    4.863324    0.582179   -0.443601
 C    6.262535    0.790899   -0.803529
 C    7.165890    0.445670    0.374690
 O    6.806585    1.192970    1.521698
 N   -1.304861   -1.482801   -0.000868
 C   -2.406452   -0.684636   -0.002524
 N   -2.399941    0.595031   -0.226055
 C   -3.599148    1.291041   -0.197171
 C   -3.588694    2.674146   -0.440371
 C   -4.763687    3.402159   -0.420406
 C   -5.990380    2.776828   -0.157296
 C   -6.040703    1.416131    0.086859
 C   -4.849169    0.694728    0.063641
 N   -4.795307   -0.680365    0.297363
 N   -5.800422   -1.528043    0.573663
 N   -5.252159   -2.694586    0.709732
 N   -3.920199   -2.646091    0.532874
 C   -3.649504   -1.380009    0.275423
 C    0.507928    0.112164   -0.521765
 C    1.870168    0.316795   -0.709009
 H    0.601007   -3.235964    0.088212
 H    5.346802   -0.124484    2.164674
 H    5.273823    1.547597    2.784351
 H    4.524011    2.369408    0.585765
 H    3.479088    1.022294    1.080633
 H    3.008686   -2.841322   -0.302488
 H    6.393144    1.847789   -1.066544
 H    6.492321    0.168422   -1.668165
 H    8.207045    0.694540    0.154818
 H    7.094701   -0.633603    0.584106
 H   -1.506358   -2.456095    0.192187
 H   -2.633189    3.145681   -0.643133
 H   -4.735546    4.470187   -0.611066
 H   -6.905871    3.358614   -0.144475
 H   -6.973042    0.902632    0.293296
 H   -0.193297    0.929262   -0.611406
 H    2.220495    1.314365   -0.959060
