45 
5dcz_ligand_aiqm1.xyz
 C   -0.695009  -11.942387  -19.570812
 C   -2.666912   -8.774165  -23.971746
 C   -3.371869  -10.003610  -23.400795
 C   -1.920060  -12.054407  -18.897157
 C   -1.835177  -11.884751  -21.700530
 C   -0.655079  -11.873481  -20.952433
 O   -0.797275  -12.419980  -23.755210
 C   -1.725608  -11.855980  -23.191478
 N   -2.716711  -11.213936  -23.891443
 C   -2.626443  -11.229778  -25.349456
 C   -1.948826   -9.961504  -25.852372
 O   -2.644507   -8.811796  -25.386260
 N   -1.864078  -12.117799  -17.494153
 C   -2.854476  -12.218437  -16.570544
 N   -4.120815  -12.269660  -16.845713
 C   -5.025576  -12.371391  -15.794097
 C   -6.394173  -12.429888  -16.082810
 C   -7.327010  -12.532156  -15.062686
 C   -6.919431  -12.578898  -13.721698
 C   -5.573539  -12.523153  -13.402901
 C   -4.649629  -12.420623  -14.439721
 N   -3.275491  -12.359434  -14.203534
 N   -2.617050  -12.381817  -13.036829
 N   -1.353395  -12.298800  -13.345066
 N   -1.167410  -12.222649  -14.681852
 C   -2.380597  -12.262282  -15.198472
 C   -3.106479  -12.105152  -19.636709
 C   -3.049789  -12.019940  -21.024305
 H    0.227212  -11.926356  -19.001829
 H   -1.641560   -8.723121  -23.583383
 H   -3.197525   -7.864965  -23.693937
 H   -4.415531  -10.009610  -23.724880
 H   -3.338605   -9.973008  -22.314867
 H    0.292220  -11.820454  -21.469051
 H   -3.640654  -11.284059  -25.754629
 H   -2.069092  -12.114047  -25.647293
 H   -1.973607   -9.913830  -26.939803
 H   -0.906320   -9.935568  -25.515036
 H   -0.938568  -12.094320  -17.093569
 H   -6.694546  -12.393835  -17.119707
 H   -8.379487  -12.576725  -15.306893
 H   -7.654422  -12.659025  -12.933726
 H   -5.222103  -12.557056  -12.381460
 H   -4.055824  -12.214612  -19.137007
 H   -3.972675  -12.080150  -21.588648
