93 
5dg6_ligand_aiqm1.xyz
 O   -0.411537   -1.319523    0.210220
 C    0.555254   -1.870085    0.721470
 O    1.505596   -2.553779    0.075344
 C    1.537389   -2.691216   -1.375494
 C    1.624821   -1.313870   -2.016169
 C    2.808513   -3.489808   -1.606895
 C    0.308526   -3.452120   -1.835686
 O    1.648841    0.913697    3.549891
 C    0.812246    0.450282    2.794061
 N   -4.185372   -1.065010   -2.487595
 C   -3.416778   -2.007012   -1.685516
 C   -4.237043   -3.256087   -1.403190
 C   -3.412243   -4.395829   -0.812984
 C   -2.655162   -4.008940    0.451982
 C   -1.973156   -5.216772    1.087683
 C    0.198390   -0.952208    2.996192
 C    0.432043   -1.423930    4.422937
 C   -0.472186   -2.580867    4.869162
 C   -0.458718   -3.708089    3.907561
 N    0.405669   -4.651937    3.756440
 N   -0.017814   -5.402111    2.647878
 C   -1.100008   -4.841102    2.226933
 O   -1.448235   -3.758279    2.972641
 N    0.825108   -1.874792    2.048835
 N   -0.790174    2.529903   -0.497269
 C   -1.815846    3.151037   -1.353692
 C   -2.226615    2.157907   -2.433381
 C   -2.752841    0.827994   -1.890439
 C   -3.801524    0.205869   -2.800296
 O   -4.331342    0.814528   -3.714281
 C   -3.018012    3.643961   -0.525711
 O   -2.901832    4.996190   -0.149417
 N    0.337412    1.087298    1.701427
 C    0.875528    2.381119    1.279877
 C   -0.174932    3.175170    0.510051
 O   -0.408039    4.341069    0.813945
 C    2.167336    2.218113    0.465966
 C    2.720530    3.523014   -0.113246
 C    3.976010    3.238772   -0.940143
 C    4.535957    4.512914   -1.563803
 C    4.840980    5.546664   -0.483194
 C    3.593396    5.840356    0.345575
 C    3.025228    4.564843    0.965592
 H    2.479235   -0.764831   -1.617073
 H    1.756022   -1.423462   -3.092101
 H    0.713325   -0.746004   -1.832384
 H    2.936281   -3.672692   -2.674869
 H    3.675687   -2.940457   -1.238691
 H    2.749973   -4.447124   -1.089413
 H   -0.586362   -2.880219   -1.599184
 H    0.253335   -4.422312   -1.337807
 H    0.356418   -3.615815   -2.912389
 H   -4.825326   -1.450288   -3.166537
 H   -2.490853   -2.285529   -2.212490
 H   -3.120764   -1.525368   -0.753583
 H   -4.699053   -3.595618   -2.334136
 H   -5.051190   -2.993006   -0.720806
 H   -4.074900   -5.236359   -0.596500
 H   -2.693482   -4.749458   -1.562262
 H   -1.909249   -3.243847    0.229025
 H   -3.348687   -3.562822    1.170785
 H   -2.727205   -5.927278    1.445330
 H   -1.360962   -5.749940    0.358394
 H   -0.863232   -0.915925    2.752505
 H    1.481491   -1.707145    4.517845
 H    0.273302   -0.584901    5.098516
 H   -0.135372   -2.943318    5.839661
 H   -1.500739   -2.230597    4.970955
 H    1.724165   -2.249539    2.305622
 H   -0.485333    1.597683   -0.726585
 H   -1.379695    4.028419   -1.832256
 H   -1.380130    1.972839   -3.103049
 H   -3.005306    2.618179   -3.039646
 H   -1.943218    0.114865   -1.711472
 H   -3.243056    0.974912   -0.923381
 H   -3.921317    3.564229   -1.131477
 H   -3.138167    3.002401    0.359060
 H   -2.066217    5.063478    0.331279
 H   -0.237251    0.549211    1.067154
 H    1.092542    2.944398    2.182621
 H    2.916853    1.761811    1.120943
 H    1.985719    1.505109   -0.351938
 H    1.965516    3.953880   -0.785980
 H    3.755549    2.494910   -1.713081
 H    4.734367    2.798684   -0.281833
 H    5.432460    4.285179   -2.144723
 H    3.799936    4.927280   -2.260798
 H    5.625228    5.155609    0.173826
 H    5.228258    6.464222   -0.931225
 H    2.832527    6.292252   -0.297260
 H    3.818155    6.566539    1.128484
 H    2.121545    4.797201    1.530831
 H    3.753911    4.143030    1.668828
