49 
5dh5_ligand_ani-2x.xyz
 C   -0.349733   -0.154272    2.542879
 C   -1.413283   -0.920902    2.154787
 N   -1.129128   -2.183650    1.696564
 C   -3.205706    0.804742    0.228919
 C    3.297434   -0.209499    2.521049
 C    3.666192    0.611596    1.309003
 C    4.613894    0.099512    0.271930
 C    3.146169    0.143209   -0.033443
 C    2.537902    1.142511   -0.963560
 C    0.566740    2.177390   -1.878196
 N   -2.071376   -3.034716    1.223630
 C   -1.358273   -4.098933    0.854669
 C    0.019492   -3.945035    1.063418
 N   -3.293227    1.684181   -1.862003
 C    0.153360   -2.675726    1.606894
 N    1.229281   -1.925734    1.985674
 O    1.941722    0.065655    2.899633
 C    0.950749   -0.727723    2.452072
 N   -2.741740   -0.595842    2.214183
 C   -3.182161    0.705954    1.736415
 C   -3.164559   -0.220253   -0.695509
 C    1.144524    1.239344   -1.031592
 C    1.408250    2.989839   -2.630251
 C    2.781087    2.827505   -2.484749
 N    3.347556    1.940165   -1.667359
 N   -3.222303    0.350171   -1.920910
 C   -3.286438    1.967341   -0.563066
 C   -3.210397   -0.299221   -3.209258
 H   -0.467873    0.845440    2.941067
 H    3.890706    0.093169    3.387771
 H    3.431355   -1.280825    2.341659
 H    3.661227    1.687714    1.482227
 H    5.232355    0.827903   -0.243240
 H    5.065519   -0.877649    0.426457
 H    2.607105   -0.801423    0.009032
 H   -0.514012    2.272099   -1.951699
 H   -1.865910   -4.960880    0.439193
 H    0.806889   -4.652797    0.847618
 H   -3.321875   -1.366900    1.902038
 H   -4.175519    0.897258    2.161250
 H   -2.522968    1.475169    2.154025
 H   -3.081103   -1.299090   -0.591583
 H    0.542121    0.588191   -0.398562
 H    1.021580    3.739721   -3.313961
 H    3.468966    3.450955   -3.053050
 H   -3.336413    3.004624   -0.247789
 H   -2.360231    0.059583   -3.796536
 H   -4.138174   -0.083070   -3.746191
 H   -3.120275   -1.376702   -3.054348
