49 
5dh5_ligand_xtb.xyz
 C   -0.446329   -0.147521    2.496357
 C   -1.493388   -0.995992    2.225582
 N   -1.165940   -2.274195    1.889956
 C   -3.105849    0.829831    0.418843
 C    3.185489   -0.121236    2.313306
 C    3.516170    0.515455    0.984736
 C    4.221511   -0.229163   -0.099499
 C    2.751725    0.042840   -0.237750
 C    2.248286    1.078214   -1.159684
 C    0.432971    2.256247   -2.185159
 N   -2.034126   -3.238508    1.560109
 C   -1.280061   -4.288990    1.266449
 C    0.081886   -4.021690    1.387275
 N   -2.821901    1.874152   -1.546934
 C    0.149847   -2.696315    1.793608
 N    1.170494   -1.869994    2.036896
 O    1.851404    0.228351    2.688951
 C    0.877207   -0.641223    2.393461
 N   -2.823465   -0.715293    2.286899
 C   -3.327166    0.580440    1.880617
 C   -2.907436   -0.111071   -0.573299
 C    0.876841    1.231297   -1.369967
 C    1.372083    3.086072   -2.781005
 C    2.711136    2.850463   -2.516188
 N    3.140889    1.884207   -1.725432
 N   -2.744370    0.562156   -1.728770
 C   -3.037606    2.057901   -0.258555
 C   -2.480123    0.015906   -3.028288
 H   -0.598211    0.879834    2.770616
 H    3.829891    0.269570    3.105145
 H    3.268631   -1.209744    2.262137
 H    3.690246    1.582992    1.034817
 H    4.882750    0.334508   -0.737780
 H    4.522986   -1.248033    0.088688
 H    2.076189   -0.788471   -0.081782
 H   -0.624345    2.417777   -2.340657
 H   -1.749635   -5.207037    0.970273
 H    0.901021   -4.685617    1.212801
 H   -3.379372   -1.507434    1.981925
 H   -4.395579    0.609400    2.117078
 H   -2.833972    1.358780    2.468565
 H   -2.869202   -1.182070   -0.537879
 H    0.179832    0.567383   -0.878273
 H    1.070145    3.896747   -3.425411
 H    3.485911    3.469349   -2.951681
 H   -3.138375    3.046642    0.141184
 H   -1.448192   -0.337319   -3.098830
 H   -2.635344    0.804753   -3.761535
 H   -3.156054   -0.814250   -3.234716
