35 
5diq_ligand_aiqm1.xyz
 C    3.428436   76.849334   28.646642
 C    2.959836   75.513712   28.455738
 C    2.600133   77.929271   28.240225
 C    0.921999   76.369155   27.455824
 C    4.272027   79.518114   28.992331
 C    5.795444   73.239183   28.272041
 C    6.857733   73.112325   27.360655
 C    5.758995   72.428811   29.411349
 C    7.875464   72.194229   27.617385
 C    6.876647   73.907668   26.088590
 C    6.779565   71.506079   29.634156
 C    7.843828   71.385013   28.747995
 C    4.696519   77.145267   29.221959
 C    3.786108   74.343449   28.900230
 C    1.742209   75.289981   27.865693
 C    1.342019   77.659199   27.642921
 C    3.049508   79.262380   28.428621
 C    5.104118   78.445233   29.389386
 O    4.880880   74.197449   27.992108
 O    8.055989   74.548413   25.843090
 O    5.982884   73.977974   25.298618
 H   -0.032224   76.164600   26.988030
 H    4.607709   80.537718   29.128622
 H    4.941534   72.497493   30.113462
 H    8.686033   72.095216   26.903067
 H    6.736620   70.876443   30.513001
 H    8.632260   70.668304   28.925807
 H    5.355073   76.334693   29.510517
 H    3.177503   73.434473   28.892301
 H    4.169324   74.493748   29.912942
 H    1.403393   74.272717   27.702543
 H    0.722570   78.491295   27.327968
 H    2.409328   80.077770   28.112022
 H    6.074410   78.654767   29.821768
 H    8.631725   74.458424   26.609095
