81 
5div_ligand_aiqm1.xyz
 C    4.600081    1.182853    1.480127
 C    5.670456    0.081510    1.531769
 C    5.195405   -0.914845    2.623734
 C    3.836287   -0.374555    3.103936
 C    3.323627    0.469162    1.940913
 C    2.235242    1.457254    2.378103
 O    1.965097    1.605093    3.560474
 N    1.650624    2.139311    1.379230
 N    2.832978   -0.466718    0.907914
 C    2.608322   -0.228605   -0.392062
 O    2.726818    0.865911   -0.940912
 C    2.178018   -1.486803   -1.187238
 C    3.102912   -1.757638   -2.375132
 C    2.838537   -0.830209   -3.553098
 C    1.378091   -0.960639   -3.952235
 C    0.469737   -0.579519   -2.793534
 N    0.770701   -1.364790   -1.588021
 C   -0.128627   -1.556277   -0.579986
 O    0.242683   -1.980251    0.512294
 C   -1.601476   -1.196684   -0.806817
 C   -2.525547   -2.040548    0.086207
 C   -3.984078   -1.591009   -0.040571
 C   -4.907998   -2.445657    0.824352
 C   -4.779972   -3.922258    0.460379
 C   -3.331042   -4.383457    0.589597
 C   -2.408746   -3.527219   -0.273679
 C   -1.726076    0.300019   -0.575510
 C   -1.462359    0.847766    0.683560
 C   -2.072646    1.146173   -1.624470
 C   -2.150962    2.526497   -1.436302
 O   -2.530776    3.309945   -2.493091
 C   -1.518767    4.217549   -2.934831
 C   -1.887977    3.080441   -0.183075
 O   -1.904688    4.439877   -0.007668
 C   -3.027311    4.899016    0.746817
 C   -1.554420    2.222281    0.878857
 O   -1.314058    2.826425    2.073921
 C   -1.246737    1.991887    3.226646
 H    4.494261    1.635564    0.499429
 H    4.820830    1.966441    2.206725
 H    5.730302   -0.419105    0.563629
 H    6.655812    0.490001    1.748368
 H    5.088052   -1.915990    2.203374
 H    5.904385   -0.987853    3.447063
 H    3.129617   -1.155276    3.389912
 H    3.961764    0.285557    3.959225
 H    1.908311    1.964365    0.418008
 H    0.925313    2.797984    1.603430
 H    2.456740   -1.333506    1.262449
 H    2.219063   -2.346546   -0.520967
 H    2.937305   -2.791911   -2.692093
 H    4.138858   -1.684262   -2.036595
 H    3.494709   -1.089377   -4.386506
 H    3.043498    0.200840   -3.269671
 H    1.164942   -1.989937   -4.260179
 H    1.140673   -0.314047   -4.797953
 H    0.589793    0.480810   -2.564643
 H   -0.560556   -0.759684   -3.081191
 H   -1.883225   -1.411371   -1.841316
 H   -2.205214   -1.916107    1.123967
 H   -4.286728   -1.687535   -1.091166
 H   -4.081321   -0.533636    0.220911
 H   -4.645573   -2.310565    1.878557
 H   -5.941705   -2.112899    0.709316
 H   -5.433911   -4.529868    1.089638
 H   -5.109691   -4.063882   -0.574515
 H   -3.237807   -5.434736    0.308345
 H   -3.018303   -4.305477    1.635028
 H   -1.371180   -3.855487   -0.171542
 H   -2.681173   -3.649235   -1.330294
 H   -1.180304    0.205881    1.504316
 H   -2.312900    0.754765   -2.605469
 H   -1.248520    4.913292   -2.144145
 H   -0.634551    3.664214   -3.256201
 H   -1.946604    4.754726   -3.777773
 H   -3.958179    4.605142    0.256302
 H   -2.945650    5.982312    0.774943
 H   -3.002363    4.498878    1.761200
 H   -1.116309    2.664502    4.068667
 H   -2.168972    1.416765    3.341796
 H   -0.394339    1.314666    3.177122
