47 
5dro_ligand_xtb.xyz
 C   -1.610174    1.638501    0.831275
 C    1.727300    0.139520    0.364707
 C    4.178279   -0.491337    0.763880
 C    6.682308   -1.136334    1.172963
 C    9.357508   -1.830729    1.614875
 C    8.677733   -1.004745    2.515435
 C   -0.289836    0.016740   -0.987000
 C   -6.262091    0.224561   -2.781031
 C   -5.540216    0.692330   -4.038702
 O   -7.382978   -0.355170   -0.277504
 C   -6.704723    0.664888   -0.338624
 N   -6.645754    1.549865    0.653910
 O   -7.292454    1.251571    1.854738
 C   -5.845972    1.055748   -1.548887
 N   -4.458259    0.773277   -1.254551
 C   -3.703803    1.561797   -0.459730
 O   -4.173423    2.555939    0.085172
 C   -2.289630    1.156732   -0.288538
 C   -0.293457    1.305740    1.055143
 C    0.384454    0.484574    0.147021
 C    2.889547   -0.159469    0.553845
 C    5.340469   -0.790761    0.953336
 C    7.360556   -1.963121    0.270788
 C    8.675073   -2.304104    0.489922
 N   10.688847   -2.116905    1.796726
 C    7.363227   -0.661860    2.299377
 C   -1.610314    0.347706   -1.199954
 O   -5.950650   -1.129109   -2.555203
 H   -2.143628    2.277502    1.518928
 H    9.198234   -0.635220    3.387724
 H    0.237888   -0.604729   -1.695722
 H   -7.347496    0.346132   -2.917642
 H   -5.806515    0.040347   -4.865380
 H   -5.827273    1.711789   -4.278629
 H   -4.463842    0.648600   -3.897525
 H   -5.912783    2.259760    0.720496
 H   -7.756021    0.411015    1.670229
 H   -5.956750    2.129141   -1.736319
 H   -4.138910   -0.133284   -1.567086
 H    0.226493    1.675149    1.926628
 H    6.840810   -2.335005   -0.600224
 H    9.193497   -2.943558   -0.210593
 H   11.067377   -2.896348    1.285294
 H   11.069241   -1.977119    2.717671
 H    6.845510   -0.024599    3.001452
 H   -2.099794   -0.007040   -2.095522
 H   -6.497708   -1.418677   -1.807368
