47 
5dro_ligand_ani-2x.xyz
 C   -1.700668    1.335858    1.071054
 C    1.737604    0.041731    0.449566
 C    4.232083   -0.565232    0.807259
 C    6.774752   -1.183798    1.172232
 C    9.483986   -1.842399    1.562539
 C    9.119454   -0.577626    1.081904
 C   -0.276270    0.077691   -0.962846
 C   -6.234570    0.653579   -2.931998
 C   -5.564160    1.494597   -4.004426
 O   -7.335036   -0.670236   -0.712918
 C   -6.783983    0.414690   -0.499844
 N   -6.978193    1.075102    0.655366
 O   -7.689789    0.416723    1.642742
 C   -5.865720    1.110694   -1.510848
 N   -4.478745    0.785289   -1.247624
 C   -3.777354    1.383920   -0.253905
 O   -4.307334    2.192726    0.511489
 C   -2.337697    1.013078   -0.127697
 C   -0.368001    1.015340    1.266610
 C    0.358996    0.377039    0.251385
 C    2.904012   -0.242095    0.616729
 C    5.398578   -0.849048    0.974586
 C    7.144308   -2.447331    1.651503
 C    8.475729   -2.773821    1.844348
 N   10.823425   -2.187756    1.698627
 C    7.786486   -0.256419    0.890894
 C   -1.612512    0.395024   -1.148604
 O   -5.830793   -0.693721   -3.100128
 H   -2.273627    1.843501    1.840724
 H    9.893568    0.151740    0.853206
 H    0.281850   -0.409279   -1.756833
 H   -7.326331    0.736359   -3.037972
 H   -5.829753    1.114272   -4.993863
 H   -5.894827    2.537092   -3.934709
 H   -4.475483    1.467716   -3.898616
 H   -6.253048    1.681077    1.030050
 H   -7.876927   -0.446252    1.220374
 H   -5.980318    2.192274   -1.400301
 H   -4.133659   -0.043122   -1.713216
 H    0.121122    1.259547    2.204590
 H    6.374224   -3.179773    1.875058
 H    8.746603   -3.761349    2.211696
 H   11.010688   -2.934393    2.352551
 H   11.457127   -1.411282    1.823778
 H    7.519692    0.728214    0.518339
 H   -2.072818    0.179491   -2.111012
 H   -6.386774   -1.199731   -2.482042
