33 
5dtk_ligand_ani-2x.xyz
 C    7.467230   39.144718  147.568323
 C    5.812675   39.168531  142.873314
 C    6.565496   38.492304  143.962719
 C    6.657997   39.067420  145.231866
 C    7.398494   38.452022  146.236902
 C    7.999808   37.215739  145.997929
 C    9.118113   33.053539  145.115485
 N    4.396477   40.445065  140.798261
 C    7.202201   37.270716  143.731677
 C    7.905250   36.612090  144.743250
 C    8.557196   35.299721  144.483813
 O    6.629324   39.914854  147.956487
 O    8.544526   38.864112  148.333757
 C    8.496950   34.260882  145.412016
 N    9.793975   32.818214  143.988532
 C    9.852139   33.820049  143.108234
 C    9.252956   35.059326  143.300025
 C    4.583082   39.784632  143.104656
 C    3.922086   40.394135  142.044979
 C    5.577304   39.859710  140.586138
 C    6.311513   39.210797  141.571682
 H    6.172201   40.014292  145.452444
 H    8.532248   36.689779  146.788965
 H    9.075026   32.232358  145.829079
 H    7.110220   36.799301  142.755907
 H    9.184329   38.345711  147.826461
 H    7.951937   34.384092  146.343584
 H   10.403487   33.620815  142.190814
 H    9.343958   35.837938  142.547830
 H    4.137435   39.771565  144.095269
 H    2.959211   40.874073  142.211599
 H    5.958340   39.903824  139.567180
 H    7.272018   38.761177  141.336128
