33 
5dtk_ligand_xtb.xyz
 C    7.442000   39.128542  147.550688
 C    5.834259   39.158637  142.873216
 C    6.589079   38.493888  143.946047
 C    6.674967   39.068145  145.208908
 C    7.395521   38.445675  146.222481
 C    8.007982   37.220134  145.983984
 C    9.106061   33.087542  145.116565
 N    4.398561   40.417498  140.842091
 C    7.223107   37.276666  143.714992
 C    7.919910   36.626595  144.728090
 C    8.557730   35.325069  144.475973
 O    6.599582   39.902934  147.910215
 O    8.493281   38.839462  148.337985
 C    8.485173   34.291054  145.407600
 N    9.773888   32.862310  143.998654
 C    9.845105   33.840871  143.113124
 C    9.258953   35.082209  143.296260
 C    4.619688   39.790915  143.133129
 C    3.948397   40.398355  142.084835
 C    5.551856   39.822115  140.593443
 C    6.305565   39.179844  141.561750
 H    6.204497   40.015938  145.421356
 H    8.544477   36.699067  146.766587
 H    9.067907   32.260110  145.812890
 H    7.133248   36.804046  142.747870
 H    9.126165   38.246134  147.912219
 H    7.936035   34.415281  146.328616
 H   10.401509   33.616227  142.212589
 H    9.361206   35.853159  142.547915
 H    4.201270   39.791359  144.127579
 H    3.001105   40.895920  142.245788
 H    5.886817   39.863543  139.565143
 H    7.250300   38.724258  141.306716
