24 
5dts_ligand_ani-2x.xyz
 O    6.624106  -17.493388   67.781191
 C    5.374005  -17.959285   67.563682
 O    4.504137  -17.217397   67.191520
 C    5.157851  -19.425050   67.815183
 C    3.857578  -19.852972   68.077875
 C    3.607558  -21.198238   68.325448
 C    4.648658  -22.119692   68.287051
 C    5.955254  -21.708184   68.002448
 C    6.196801  -20.354671   67.765360
 C    7.077887  -22.679305   67.974131
 C    8.324058  -22.338096   68.506761
 N    9.380688  -23.146799   68.533345
 C    9.233961  -24.358773   67.994521
 C    8.044720  -24.805719   67.426975
 C    6.949220  -23.954024   67.425255
 H    7.159457  -18.177679   68.206209
 H    3.060142  -19.116131   68.082975
 H    2.597047  -21.532867   68.541230
 H    4.451612  -23.168060   68.497824
 H    7.201557  -20.050597   67.469863
 H    8.458882  -21.354197   68.956330
 H   10.111217  -25.002354   68.020469
 H    7.976952  -25.803036   67.002334
 H    6.006552  -24.264987   66.980121
