50 
5dxt_ligand_xtb.xyz
 C    4.747098    2.088293   -0.998515
 C    4.713613    2.047908    0.537644
 C    6.097357    2.424095    1.064539
 C    3.137691    0.285590    0.905906
 C    0.310554   -3.234636    2.551600
 C   -2.497122   -2.736775    0.334591
 C   -2.800806   -1.477353   -0.128260
 C   -0.750083   -1.420410    0.511621
 C    0.590871   -0.915290    0.742371
 C    2.121111    0.905031    0.180431
 C   -6.054099   -1.046165   -1.318959
 C   -3.574552    1.381437   -1.152462
 N    5.130549    0.924089   -1.555368
 O    4.493196    3.089663   -1.627000
 O    4.408953    0.756601    1.038908
 C    2.865152   -0.910585    1.553042
 C    1.613896   -1.515066    1.493915
 O    1.551747   -2.676866    2.213880
 C   -0.453659   -3.760224    1.331327
 N   -1.196540   -2.692601    0.731685
 N   -1.704908   -0.678556   -0.012241
 C    0.887076    0.302402    0.114402
 C   -4.066606   -1.051562   -0.657277
 N   -5.118400   -1.850505   -0.793851
 N   -5.652711    0.188502   -1.513489
 N   -4.385287    0.187382   -1.088695
 C   -3.299866    1.720997   -2.616313
 C   -4.302079    2.519616   -0.442606
 H    3.975867    2.782187    0.887230
 H    6.085297    2.441296    2.151000
 H    6.831995    1.693911    0.734457
 H    6.373099    3.405578    0.690340
 H   -0.313870   -2.506050    3.086553
 H    0.555856   -4.059125    3.225347
 H   -3.099163   -3.617554    0.399457
 H    2.285799    1.833408   -0.341507
 H   -7.043155   -1.379025   -1.559149
 H   -2.638069    1.142725   -0.639380
 H    5.290003    0.112851   -0.982712
 H    5.180729    0.843465   -2.556620
 H    3.637222   -1.390198    2.132199
 H    0.267779   -4.176107    0.617565
 H   -1.152024   -4.546013    1.626351
 H    0.094371    0.762641   -0.452670
 H   -2.692128    2.619068   -2.682830
 H   -4.239417    1.887466   -3.138105
 H   -2.769268    0.903896   -3.100148
 H   -5.262131    2.695909   -0.921174
 H   -3.706766    3.427177   -0.489274
 H   -4.474071    2.267681    0.601444
