28 
5dya_ligand_xtb.xyz
 O    2.244639   -1.500345   -2.590305
 C    1.583372   -1.204915   -1.619629
 N    0.321603   -0.729121   -1.727070
 C   -0.517238   -0.402302   -0.661016
 C   -1.742285    0.191097   -0.864333
 C   -2.573242    0.483245    0.221245
 C   -3.870751    1.116517   -0.046296
 O   -4.595981    1.352817    1.064015
 O   -4.282034    1.412308   -1.143812
 C   -2.154773    0.163322    1.511613
 C   -0.926423   -0.427557    1.717128
 C   -0.084317   -0.714620    0.641998
 N    1.111324   -1.350339    0.801106
 C    2.147501   -1.303326   -0.203738
 C    3.143556   -0.142615    0.017044
 C    2.488018    1.230610   -0.064978
 H   -0.044528   -0.614045   -2.663921
 H   -2.082596    0.434857   -1.859270
 H   -5.435160    1.768453    0.813704
 H   -2.798002    0.385136    2.347584
 H   -0.601849   -0.677464    2.716628
 H    1.436236   -1.469880    1.749222
 H    2.714203   -2.243184   -0.154896
 H    3.609376   -0.269451    0.997768
 H    3.922461   -0.225256   -0.741896
 H    2.074355    1.401822   -1.055988
 H    1.687199    1.329645    0.665459
 H    3.225436    2.004694    0.132834
