28 
5dya_ligand_ani-2x.xyz
 O    2.210565   -0.598283   -2.568280
 C    1.474134   -0.528265   -1.600523
 N    0.158868   -0.169181   -1.716887
 C   -0.743909   -0.036758   -0.652241
 C   -2.103269    0.150316   -0.858398
 C   -2.962499    0.286610    0.228715
 C   -4.405408    0.480603   -0.054553
 O   -5.154927    0.600014    1.060677
 O   -4.894529    0.531628   -1.160745
 C   -2.455260    0.242087    1.533783
 C   -1.097038    0.061215    1.736663
 C   -0.231311   -0.082999    0.651640
 N    1.148723   -0.202621    0.818429
 C    1.918028   -0.914301   -0.190653
 C    3.414139   -0.665284   -0.002961
 C    3.801563    0.808922   -0.083807
 H   -0.153944   -0.009540   -2.666002
 H   -2.521943    0.192627   -1.861371
 H   -6.065713    0.720716    0.746428
 H   -3.128056    0.350822    2.377509
 H   -0.696691    0.035281    2.749522
 H    1.397665   -0.478852    1.760233
 H    1.735041   -2.002767   -0.123035
 H    3.710847   -1.079842    0.969320
 H    3.943074   -1.235929   -0.773018
 H    3.567271    1.216154   -1.072917
 H    3.259356    1.395717    0.663973
 H    4.875323    0.932009    0.088699
