37 
5dyo_ligand_xtb.xyz
 C   24.915177   28.526313   29.712850
 O   24.725979   27.599461   30.493414
 C   25.597908   29.746483   30.082517
 C   25.790407   30.759046   29.203045
 O   26.439370   31.875364   29.638962
 C   26.660119   32.906363   28.806925
 C   27.335079   34.004843   29.323238
 C   27.599717   35.098821   28.513356
 O   28.259071   36.146449   29.052062
 C   27.182997   35.094098   27.176587
 C   26.512935   34.010479   26.665154
 C   26.229622   32.895602   27.463602
 C   25.553387   31.730109   26.981700
 C   25.326367   30.680731   27.838052
 C   24.640955   29.480523   27.456881
 C   24.447859   28.472847   28.323494
 C   25.096709   31.682042   25.578121
 C   23.936017   32.344804   25.198207
 C   23.491667   32.288517   23.888914
 C   24.204373   31.570554   22.942194
 C   25.357043   30.899856   23.309086
 C   25.810303   30.946147   24.624856
 C   27.082370   30.281334   25.038737
 O   27.807821   30.728760   25.883596
 O   27.387347   29.140571   24.399687
 H   25.961689   29.835102   31.094037
 H   27.660699   34.002067   30.349835
 H   28.401534   36.832843   28.388051
 H   27.398059   35.946974   26.547573
 H   26.200969   34.007591   25.632000
 H   24.272374   29.416749   26.441415
 H   23.929383   27.571872   28.029682
 H   23.382364   32.902755   25.938618
 H   22.589726   32.809141   23.605297
 H   23.864542   31.535123   21.918513
 H   25.923150   30.369441   22.554609
 H   26.697312   28.859021   23.783932
