37 
5dyo_ligand_ani-2x.xyz
 C   25.126386   28.471816   29.533611
 O   25.000688   27.506758   30.277457
 C   25.772016   29.707761   29.944311
 C   25.897747   30.745198   29.081246
 O   26.488350   31.869081   29.591356
 C   26.645777   32.975592   28.814943
 C   27.198225   34.075843   29.449627
 C   27.421631   35.236959   28.729142
 O   27.961523   36.290672   29.391548
 C   27.100658   35.289164   27.363494
 C   26.550638   34.190706   26.745413
 C   26.275475   32.994950   27.451828
 C   25.694392   31.817891   26.876196
 C   25.458324   30.709802   27.715309
 C   24.765224   29.502048   27.328943
 C   24.611836   28.447696   28.150330
 C   25.271284   31.772250   25.477969
 C   24.248824   32.625554   25.024162
 C   23.683566   32.470153   23.768424
 C   24.134133   31.460642   22.921933
 C   25.165778   30.631923   23.340277
 C   25.764435   30.798092   24.586824
 C   26.997784   29.965693   24.879841
 O   28.097829   30.403849   25.066253
 O   26.786927   28.624877   24.857149
 H   26.144769   29.790543   30.958468
 H   27.455983   34.019732   30.501385
 H   28.067881   37.029161   28.779523
 H   27.290904   36.198325   26.795520
 H   26.329882   34.242883   25.682753
 H   24.334894   29.445782   26.331331
 H   24.106847   27.543801   27.829502
 H   23.883265   33.406509   25.687147
 H   22.885933   33.136029   23.450240
 H   23.684598   31.320911   21.942841
 H   25.531866   29.839764   22.691902
 H   25.836128   28.440391   24.860602
