30 
5e0a_ligand_ani-2x.xyz
 C   -0.138479    1.285423    0.490986
 C    0.727042    0.024363    0.426609
 C    0.007943   -1.068203   -0.367731
 C   -1.423256   -1.233549    0.146020
 C   -2.148921    0.100469    0.209628
 C   -3.541220    0.008569    0.821476
 C    2.894926   -0.182149   -0.900800
 C    4.197974    0.549666   -1.147753
 N    2.014238    0.461519   -0.098717
 O    0.507568    2.213568    1.314106
 O    0.593831   -2.335905   -0.217559
 O   -2.133588   -2.101978   -0.704191
 O   -1.408606    1.008122    1.027756
 O   -4.168744    1.269180    0.834110
 O    2.697213   -1.274744   -1.431131
 H   -0.274989    1.701488   -0.527210
 H    0.851335   -0.340720    1.457363
 H   -0.028208   -0.773892   -1.431231
 H   -1.356429   -1.640857    1.169495
 H   -2.238413    0.517448   -0.807891
 H   -4.160470   -0.661640    0.220146
 H   -3.465619   -0.417245    1.836358
 H    4.300153    1.485200   -0.589914
 H    5.022296   -0.118949   -0.885536
 H    4.279613    0.758665   -2.218507
 H    2.308737    1.344404    0.300883
 H   -0.194695    2.742825    1.709996
 H    1.439016   -2.285702   -0.707086
 H   -1.589179   -2.899361   -0.776642
 H   -3.570868    1.864085    1.306768
