51 
5e13_ligand_xtb.xyz
 C   -4.278448    0.054823    0.290237
 C    1.580862   -0.840578    0.172308
 C   -5.586659    0.508113    0.056092
 C   -6.617120   -0.424794    0.272340
 C   -4.293828    2.136920   -0.348088
 C    2.479706   -0.424255    1.131395
 N   -6.283276   -1.655387    0.676361
 N   -3.953190   -1.180337    0.689283
 O    4.861604   -3.239735    0.649651
 C    5.392421   -2.150806    0.691051
 N    6.624480   -1.918316    0.140214
 C    7.327835   -0.706783    0.101993
 N    8.465536   -0.552002   -0.425992
 C    6.620387    0.384306    0.729464
 C    5.419763    0.174575    1.288010
 N    4.814482   -1.054210    1.297644
 C    3.496357   -1.200239    1.897002
 N    2.343685    0.914414    1.262808
 N    1.431984    1.328147    0.470761
 N    0.950604    0.291836   -0.207060
 C   -0.131827    0.397217   -1.146673
 C   -1.440291   -0.150966   -0.541765
 O   -1.228058   -1.214964    0.323046
 C   -0.493803    1.860705   -1.428551
 C   -1.026488    2.070182   -2.852670
 O   -2.000927    1.094583   -3.149171
 O   -1.466883    2.231253   -0.461096
 C   -2.026456    1.107347    0.147747
 N   -3.464800    1.116739    0.025929
 N   -5.551700    1.819825   -0.346042
 C   -5.011117   -1.956586    0.855140
 N   -7.913507   -0.138312    0.082084
 H    1.345556   -1.802213   -0.227036
 H   -3.905399    3.099634   -0.611413
 H    7.052078   -2.729286   -0.291662
 H    8.870382   -1.387211   -0.839277
 H    7.092003    1.349436    0.728035
 H    4.844811    0.961990    1.752406
 H    3.534538   -0.838893    2.928671
 H    3.251876   -2.264218    1.879759
 H    0.134862   -0.142858   -2.057912
 H   -2.105054   -0.428214   -1.372840
 H   -2.114244   -1.499534    0.638911
 H    0.369575    2.515754   -1.271922
 H   -0.185705    2.003652   -3.557519
 H   -1.453835    3.078673   -2.901742
 H   -2.419652    1.313231   -3.988439
 H   -1.765516    1.098963    1.221013
 H   -4.807111   -2.968510    1.178078
 H   -8.176739    0.793577   -0.181544
 H   -8.604155   -0.836990    0.289282
