78 
5e3a_ligand_dft.xyz
 N   -2.037914    0.426780   -1.073967
 C   -2.752464    0.670684    0.216403
 C   -3.655735   -0.543062    0.429649
 O   -4.491859   -0.813673   -0.427207
 C   -3.580241    1.960590    0.131052
 C   -2.751778    3.175218   -0.211766
 C   -2.556658    3.563499   -1.539357
 C   -2.137050    3.933191    0.788461
 C   -1.755275    4.649596   -1.871270
 C   -1.341607    5.030761    0.477979
 C   -1.140852    5.390992   -0.860029
 O   -0.353046    6.459876   -1.096182
 N   -3.458016   -1.236748    1.568919
 C   -4.102855   -2.531632    1.776358
 C   -3.291700   -3.568619    0.997555
 O   -2.426319   -4.252017    1.523930
 N   -3.524068   -3.556758   -0.344037
 C   -2.508938   -4.077934   -1.238923
 C   -1.300637   -3.140900   -1.195279
 O   -1.291387   -2.091073   -1.848075
 N   -0.304707   -3.524823   -0.375651
 C    0.885973   -2.733549   -0.135699
 C    0.544747   -1.432745    0.619855
 O   -0.596165   -1.176617    1.004768
 C    1.686428   -2.520874   -1.445749
 C    3.129625   -2.098084   -1.267566
 C    3.609430   -0.945651   -1.896069
 C    4.019013   -2.859094   -0.499770
 C    4.945620   -0.570808   -1.776834
 C    5.350030   -2.477704   -0.364846
 C    5.818475   -1.333427   -1.007341
 N    1.593652   -0.632502    0.877705
 C    1.472210    0.614953    1.589699
 C    0.859134    1.694800    0.699613
 O    0.405060    1.504232   -0.412618
 C    2.799804    1.005991    2.262841
 C    4.043824    1.065370    1.361351
 C    5.264927    1.416223    2.215482
 C    3.891558    2.051520    0.200972
 O    0.806698    2.864492    1.320430
 H   -1.580536   -0.511817   -1.109625
 H   -1.294446    1.130400   -1.195541
 H   -2.699759    0.448227   -1.853617
 H   -1.972100    0.737878    0.973868
 H   -4.072915    2.091709    1.100132
 H   -4.377246    1.806355   -0.605541
 H   -3.057427    3.024140   -2.341230
 H   -2.289405    3.674198    1.833472
 H   -1.624817    4.929813   -2.913219
 H   -0.897388    5.642416    1.257363
 H   -0.323695    6.655434   -2.041224
 H   -2.548922   -1.125045    2.003874
 H   -5.137856   -2.465064    1.435523
 H   -4.078319   -2.775980    2.837613
 H   -4.138849   -2.833120   -0.701794
 H   -2.902477   -4.087708   -2.255696
 H   -2.250953   -5.097652   -0.945884
 H   -0.556069   -4.226360    0.312720
 H    1.501993   -3.327917    0.547448
 H    1.156830   -1.800423   -2.072126
 H    1.657817   -3.479898   -1.974571
 H    2.931092   -0.340170   -2.491731
 H    3.676819   -3.771080   -0.015642
 H    5.301476    0.320352   -2.284121
 H    6.025066   -3.082701    0.232134
 H    6.859493   -1.042339   -0.909946
 H    2.488569   -0.852666    0.459520
 H    0.727410    0.472048    2.382928
 H    2.654847    1.976869    2.748038
 H    2.974879    0.275816    3.060978
 H    4.230888    0.067893    0.938159
 H    5.163932    2.418309    2.648786
 H    6.176568    1.402203    1.609854
 H    5.396348    0.704337    3.037286
 H    3.126491    1.732510   -0.515420
 H    4.831866    2.132968   -0.352804
 H    3.630957    3.050864    0.568728
 H    0.313305    3.495974    0.759545
