78 
5e3a_ligand_aiqm1.xyz
 N    1.983798    0.222876    1.766696
 C    2.984049    0.134436    0.644083
 C    3.709326   -1.201673    0.816098
 O    4.242972   -1.451016    1.889405
 C    4.006279    1.278964    0.695399
 C    3.400034    2.648471    0.550549
 C    3.135254    3.452010    1.659959
 C    3.109596    3.167840   -0.715778
 C    2.565888    4.714034    1.519887
 C    2.553195    4.431169   -0.872618
 C    2.271876    5.207269    0.252326
 O    1.699960    6.421175    0.040845
 N    3.730634   -2.001897   -0.258342
 C    4.219292   -3.379198   -0.137916
 C    3.097065   -4.220763    0.471007
 O    2.312946   -4.861699   -0.207110
 N    2.977005   -4.085909    1.818012
 C    1.692117   -4.354235    2.431691
 C    0.704150   -3.257407    2.011093
 O    0.774057   -2.118961    2.484792
 N   -0.178115   -3.609224    1.065431
 C   -1.137676   -2.700419    0.469492
 C   -0.441911   -1.593766   -0.353134
 O    0.782004   -1.463569   -0.406314
 C   -2.128443   -2.175154    1.534610
 C   -3.361680   -1.509880    0.978004
 C   -3.696356   -0.205446    1.352245
 C   -4.197378   -2.181434    0.078448
 C   -4.835024    0.418935    0.837014
 C   -5.333467   -1.558579   -0.441339
 C   -5.652391   -0.255415   -0.067703
 N   -1.263962   -0.793505   -1.052606
 C   -0.764011    0.247904   -1.920483
 C   -0.130434    1.388585   -1.131491
 O    0.072246    1.393191    0.061448
 C   -1.833789    0.710734   -2.915235
 C   -3.154393    1.233294   -2.339720
 C   -4.046590    1.681972   -3.494499
 C   -2.957731    2.375777   -1.349029
 O    0.255698    2.376372   -1.935899
 H    1.432711   -0.659185    1.824890
 H    1.348257    1.003369    1.592804
 H    2.474507    0.332071    2.653417
 H    2.417649    0.169253   -0.278040
 H    4.700448    1.101095   -0.123480
 H    4.580404    1.206939    1.621342
 H    3.394269    3.107542    2.655071
 H    3.343644    2.582001   -1.599584
 H    2.377381    5.318136    2.398116
 H    2.361490    4.840781   -1.855631
 H    1.614204    6.890173    0.872930
 H    3.030696   -1.825221   -0.966437
 H    5.102837   -3.371244    0.493537
 H    4.455669   -3.760870   -1.125482
 H    3.566243   -3.397159    2.263591
 H    1.804022   -4.329327    3.510585
 H    1.341600   -5.334813    2.120826
 H    0.011090   -4.473819    0.581685
 H   -1.696674   -3.289961   -0.257569
 H   -1.608888   -1.495165    2.209176
 H   -2.431239   -3.044201    2.121861
 H   -3.063074    0.319499    2.059251
 H   -3.974301   -3.202465   -0.213739
 H   -5.075265    1.430555    1.140233
 H   -5.968395   -2.099362   -1.129388
 H   -6.529091    0.223717   -0.478609
 H   -2.259117   -0.853691   -0.903957
 H    0.069022   -0.162397   -2.498449
 H   -1.389089    1.487223   -3.538674
 H   -2.048743   -0.142160   -3.563460
 H   -3.669080    0.418463   -1.822225
 H   -3.594703    2.527202   -4.016685
 H   -5.021169    1.997515   -3.125282
 H   -4.198761    0.876524   -4.212491
 H   -2.408680    2.065833   -0.455169
 H   -3.924945    2.753416   -1.021576
 H   -2.414917    3.200460   -1.814541
 H    0.683699    3.062815   -1.401961
