42 
5e73_ligand_xtb.xyz
 C  -26.323213  -11.441424    1.002528
 C  -26.566282   -9.955591    1.120727
 O  -25.799219   -9.210473    1.682578
 N  -27.734193   -9.502783    0.538041
 C  -28.689352  -10.269462   -0.113227
 C  -29.706973   -9.485341   -0.557661
 N  -30.854490   -9.962111   -1.206270
 C  -31.422344   -9.304784   -2.267442
 C  -32.741381   -9.884152   -2.726801
 O  -30.911122   -8.334482   -2.778780
 C  -31.325251  -11.225447   -0.744591
 C  -31.077199  -12.397966   -1.455294
 C  -30.308110  -12.406767   -2.742719
 C  -31.554493  -13.592242   -0.922481
 C  -32.240151  -13.634587    0.272351
 C  -32.464558  -12.458992    0.984870
 C  -32.002146  -11.257670    0.469109
 O  -33.131868  -12.534043    2.164064
 C  -29.409051   -8.130481   -0.171657
 C  -28.170936   -8.177667    0.503711
 C  -27.585840   -7.033642    1.021722
 C  -28.265450   -5.840280    0.864622
 C  -29.495297   -5.784853    0.214065
 C  -30.080264   -6.920228   -0.307837
 H  -26.265338  -11.735614   -0.043086
 H  -25.380154  -11.671701    1.490683
 H  -27.121561  -11.999897    1.486657
 H  -28.591192  -11.331785   -0.206717
 H  -33.204824   -9.180643   -3.413153
 H  -32.582226  -10.826059   -3.245205
 H  -33.399221  -10.064561   -1.880049
 H  -30.950294  -12.707932   -3.570428
 H  -29.892628  -11.427632   -2.966004
 H  -29.492625  -13.126392   -2.685465
 H  -31.373781  -14.510672   -1.461163
 H  -32.604422  -14.564651    0.677101
 H  -32.161699  -10.331339    1.005400
 H  -33.215798  -11.656174    2.555607
 H  -26.637059   -7.077968    1.529090
 H  -27.832670   -4.932336    1.257174
 H  -29.998097   -4.834330    0.115231
 H  -31.024626   -6.868845   -0.824001
