42 
5e73_ligand_dft.xyz
 C   -1.684544    3.606313   -0.919672
 C   -2.597105    2.511350   -0.409295
 O   -3.762439    2.710432   -0.140501
 N   -2.019663    1.250382   -0.264786
 C   -0.689928    0.921221   -0.541612
 C   -0.470718   -0.389910   -0.276350
 N    0.797454   -1.011455   -0.343321
 C    0.949291   -2.278217   -0.892830
 C    2.339534   -2.876708   -0.800854
 O    0.014697   -2.879148   -1.385318
 C    1.931069   -0.197014   -0.011075
 C    2.660115    0.445747   -1.016233
 C    2.312396    0.292070   -2.475888
 C    3.739031    1.239745   -0.610822
 C    4.076812    1.401427    0.723640
 C    3.323647    0.761283    1.709442
 C    2.249003   -0.039421    1.337163
 O    3.685897    0.956138    3.003473
 C   -1.716751   -0.953449    0.206765
 C   -2.661264    0.090456    0.198496
 C   -3.977814   -0.099082    0.620681
 C   -4.323445   -1.365533    1.067214
 C   -3.392291   -2.414274    1.091799
 C   -2.090405   -2.221883    0.661433
 H   -1.286610    3.362265   -1.909781
 H   -2.272760    4.521235   -0.984338
 H   -0.839967    3.767614   -0.242075
 H    0.013823    1.668029   -0.873500
 H    2.269874   -3.918742   -1.113041
 H    3.045155   -2.355744   -1.454579
 H    2.734913   -2.816492    0.217317
 H    2.793571   -0.589113   -2.918046
 H    1.234836    0.178358   -2.626545
 H    2.648536    1.163045   -3.046024
 H    4.326811    1.752468   -1.367839
 H    4.912787    2.024949    1.021807
 H    1.638699   -0.546602    2.080552
 H    3.080354    0.477217    3.582009
 H   -4.688525    0.714765    0.600243
 H   -5.340188   -1.546042    1.403025
 H   -3.700073   -3.394082    1.444082
 H   -1.380820   -3.039716    0.650235
