42 
5e73_ligand_aiqm1.xyz
 C  -26.456898  -11.496152    1.122712
 C  -26.612362   -9.994418    1.159118
 O  -25.795699   -9.263432    1.671778
 N  -27.763375   -9.497945    0.560092
 C  -28.768152  -10.262529   -0.047814
 C  -29.751761   -9.451794   -0.514071
 N  -30.941167   -9.932678   -1.111600
 C  -31.499288   -9.324953   -2.223289
 C  -32.815869   -9.895178   -2.706335
 O  -30.975573   -8.370469   -2.760451
 C  -31.374168  -11.235459   -0.687560
 C  -30.965305  -12.379648   -1.385263
 C  -30.086940  -12.287290   -2.604234
 C  -31.417603  -13.609973   -0.905311
 C  -32.230432  -13.718889    0.215747
 C  -32.611215  -12.566149    0.895292
 C  -32.182136  -11.324576    0.443642
 O  -33.404255  -12.714732    1.996227
 C  -29.380712   -8.082273   -0.197776
 C  -28.140433   -8.151151    0.465266
 C  -27.475268   -7.013693    0.929860
 C  -28.098157   -5.792565    0.716046
 C  -29.333751   -5.701954    0.057514
 C  -29.985341   -6.833503   -0.408266
 H  -26.434259  -11.859227    0.095396
 H  -25.524735  -11.746188    1.618507
 H  -27.286035  -11.985435    1.633478
 H  -28.703665  -11.335879   -0.055582
 H  -33.588902   -9.732872   -1.953162
 H  -33.088433   -9.380876   -3.623768
 H  -32.752416  -10.967906   -2.885229
 H  -30.624347  -11.860614   -3.455404
 H  -29.225559  -11.642759   -2.427322
 H  -29.732899  -13.275068   -2.899758
 H  -31.118862  -14.513494   -1.422472
 H  -32.569698  -14.680758    0.573168
 H  -32.455474  -10.413166    0.963946
 H  -33.579751  -11.851986    2.377411
 H  -26.522178   -7.086589    1.429297
 H  -27.617853   -4.885277    1.059869
 H  -29.780210   -4.727933   -0.096876
 H  -30.916261   -6.746570   -0.947523
