55 
5e8z_ligand_ani-2x.xyz
 C   -2.175491    6.903376    4.744240
 C    3.709313    8.564955    7.431557
 C   -4.305610    5.582359    4.492189
 C   -0.878988    5.366353    2.832454
 C   -2.197045    5.091904    3.176936
 C    4.891209    9.237323    7.716647
 C    4.342692    9.422901    9.924323
 C    3.136927    8.748622    9.753887
 C    2.815895    8.281880    8.482776
 C   -5.253707    6.638837    3.933765
 C   -0.190960    6.412138    3.445867
 C   -0.858941    7.178226    4.406324
 C    1.871232    6.075568    8.038396
 C    1.801195    6.465844    1.882076
 C    1.224175    6.707896    3.130762
 N    1.962142    7.250992    4.101508
 C    3.247582    7.500391    3.868764
 C    3.820965    7.254660    2.593566
 N    3.069321    6.737825    1.606440
 N    5.109370    7.532576    2.313208
 C    4.058522    8.037715    5.013517
 O    5.258987    8.295379    4.927029
 N    3.312687    8.182367    6.138782
 C   -2.866519    5.850916    4.137954
 N    5.211774    9.662527    8.941367
 O   -6.551575    6.328171    4.402841
 N    1.660974    7.519301    8.170070
 C    0.665836    5.477423    7.327657
 O   -0.531063    5.766113    8.026896
 C   -0.719297    7.162091    8.169547
 C    0.446537    7.792260    8.921894
 H   -2.677449    7.509853    5.496449
 H   -4.619587    4.601115    4.118270
 H   -4.438721    5.561177    5.581261
 H   -0.384650    4.739616    2.093793
 H   -2.714076    4.268673    2.687962
 H    5.597405    9.433285    6.915037
 H    4.623561    9.789700   10.909402
 H    2.468400    8.588585   10.595061
 H   -5.210287    6.628997    2.833707
 H   -4.933309    7.638028    4.270597
 H   -0.323704    7.993537    4.887150
 H    2.004471    5.597723    9.023957
 H    2.784755    5.904713    7.460466
 H    1.204298    6.060996    1.066557
 H    5.710693    7.865244    3.054547
 H    5.459805    7.280775    1.404935
 H    2.333306    7.939126    6.034666
 H   -7.164883    6.968910    4.025100
 H    0.743325    4.385453    7.290856
 H    0.612550    5.854439    6.295213
 H   -1.656344    7.297470    8.719274
 H   -0.814975    7.635234    7.179613
 H    0.309371    8.875746    8.995553
 H    0.479106    7.377516    9.945437
