55 
5e90_ligand_xtb.xyz
 C   -2.109528    7.083565    4.800378
 C    3.758576    8.561615    7.399020
 C   -4.264577    5.813771    4.587465
 C   -0.877870    5.457297    2.931855
 C   -2.193346    5.234109    3.289658
 C    4.890072    9.333402    7.643841
 C    4.333575    9.625146    9.821900
 C    3.192223    8.847369    9.705709
 C    2.895791    8.266845    8.476555
 C   -5.182535    6.625688    3.668761
 C   -0.158575    6.499241    3.511452
 C   -0.793308    7.309790    4.452138
 C    0.642614    7.572370    9.134640
 C    1.794457    6.503307    1.909431
 C    1.244230    6.747203    3.174401
 N    2.019449    7.249438    4.135418
 C    3.294092    7.498715    3.878282
 C    3.839862    7.245783    2.591660
 N    3.054875    6.747014    1.622731
 N    5.122427    7.491342    2.308108
 C    4.118831    8.027374    4.994722
 O    5.302044    8.317769    4.876191
 N    3.397829    8.107993    6.136371
 C   -2.826681    6.039023    4.228990
 N    5.173642    9.846740    8.827310
 O   -6.517793    6.381966    4.050538
 N    1.774378    7.464849    8.234436
 C   -0.572483    6.968086    8.422696
 O   -0.354594    5.619060    8.083916
 C    0.771489    5.488259    7.245846
 C    2.021021    6.064208    7.914663
 H   -2.591380    7.721191    5.528014
 H   -4.528094    4.760336    4.486700
 H   -4.457906    6.117255    5.617053
 H   -0.398647    4.804903    2.217018
 H   -2.736517    4.415466    2.839958
 H    5.584045    9.551516    6.846046
 H    4.596291   10.080349   10.767392
 H    2.561212    8.680949   10.564305
 H   -5.015305    6.325264    2.623728
 H   -4.941062    7.695272    3.759308
 H   -0.240622    8.127892    4.891217
 H    0.454310    8.624683    9.353429
 H    0.811038    7.027203   10.077072
 H    1.194105    6.120934    1.095167
 H    5.703140    7.871378    3.045598
 H    5.469353    7.294340    1.386616
 H    2.428254    7.814059    6.030357
 H   -7.108476    6.881220    3.477959
 H   -0.782618    7.550573    7.513863
 H   -1.446850    6.981554    9.075304
 H    0.590957    6.003210    6.290747
 H    0.891671    4.419635    7.061757
 H    2.224764    5.496215    8.837581
 H    2.881652    5.967770    7.253629
