23 
5eb3_ligand_xtb.xyz
 O   25.335583    4.291660   34.662930
 C   24.618809    4.100614   33.468149
 C   24.850477    5.250572   32.523331
 C   25.677677    6.298703   32.888520
 N   25.924911    7.338215   32.109434
 C   25.362833    7.394967   30.921002
 C   24.502337    6.384991   30.443081
 C   24.238363    5.286334   31.260950
 C   23.337591    4.132941   30.877584
 O   22.767833    4.260065   29.587658
 O   23.988965    6.561190   29.205867
 C   25.656387    8.578654   30.057590
 H   25.171394    3.545174   35.247797
 H   23.539235    4.017952   33.680046
 H   24.933408    3.162328   32.980441
 H   26.161477    6.298009   33.852741
 H   22.534694    4.058057   31.627884
 H   23.926438    3.203526   30.928988
 H   22.211396    3.495338   29.412941
 H   23.418504    5.806040   28.993259
 H   24.731944    9.098094   29.812352
 H   26.330512    9.248968   30.580612
 H   26.107532    8.253409   29.122043
