23 
5eb3_ligand_dft.xyz
 O    3.443879   -0.951012    0.059125
 C    2.594109    0.167704   -0.045427
 C    1.152050   -0.285661   -0.022905
 C    0.835636   -1.634672    0.072716
 N   -0.416384   -2.103967    0.085445
 C   -1.426463   -1.243285    0.013321
 C   -1.207046    0.142026   -0.081886
 C    0.098442    0.636443   -0.108146
 C    0.339647    2.112575   -0.309068
 O   -0.572859    2.860716    0.497609
 O   -2.299317    0.940382   -0.166535
 C   -2.830016   -1.778746    0.029213
 H    4.353131   -0.634635    0.056005
 H    2.792445    0.721647   -0.978503
 H    2.766831    0.869316    0.788348
 H    1.629843   -2.369534    0.141219
 H    0.192353    2.360480   -1.371589
 H    1.367979    2.383374   -0.044257
 H   -0.518576    3.787325    0.236089
 H   -2.017420    1.843543    0.068168
 H   -3.363111   -1.517066   -0.891512
 H   -2.797638   -2.864984    0.130575
 H   -3.402927   -1.350698    0.858854
