33 
5ech_ligand_aiqm1.xyz
 O   -1.663722    2.567091    0.021220
 O    3.989297   -0.032413    0.620101
 O    3.813072   -2.065739   -0.311466
 C    1.242565    0.525799    0.195005
 C   -0.286019    0.562679    0.228719
 C    1.614803    1.482186   -0.950897
 C    0.612658    2.630803   -0.809143
 C   -0.614504    1.999016   -0.164434
 C   -0.934562    0.110467    1.532337
 C    1.805587   -0.875001    0.019466
 C   -2.439692   -0.127223    1.409872
 C    3.303401   -0.905370    0.152980
 C   -2.762941   -1.288278    0.515838
 C   -3.571358   -1.229194   -0.545451
 C   -3.898879   -2.391488   -1.435276
 H    4.766676   -2.022610   -0.167310
 H    1.628395    0.942188    1.132278
 H   -0.650369   -0.060187   -0.595802
 H    1.462327    0.959885   -1.901340
 H    2.653962    1.800997   -0.906098
 H    0.985620    3.396266   -0.125257
 H    0.350324    3.125960   -1.742768
 H   -0.741818    0.854920    2.310792
 H   -0.451741   -0.818100    1.864779
 H    1.535354   -1.287496   -0.956924
 H    1.400104   -1.566248    0.767814
 H   -2.837250   -0.323453    2.410723
 H   -2.933517    0.771388    1.032561
 H   -2.282399   -2.235966    0.762525
 H   -4.040761   -0.277194   -0.785034
 H   -4.972499   -2.586806   -1.440620
 H   -3.387716   -3.296801   -1.102698
 H   -3.607731   -2.190378   -2.468155
