44 
5eef_ligand_dft.xyz
 O    6.599045   -2.497072   -0.616766
 O    4.767475   -1.020389   -1.663674
 O   -1.708795    3.286551   -1.249362
 N    5.539187   -2.058991    0.172735
 N   -4.318837   -2.367979    0.115163
 C   -2.101171    1.199720   -0.224688
 C   -1.780993    0.237132    0.738996
 C   -2.501433   -0.938304    0.855892
 C   -3.592992   -1.208240    0.001340
 C   -3.911211   -0.236995   -0.975733
 C   -3.181366    0.930067   -1.074709
 C   -1.369140    2.477095   -0.404531
 C   -0.133282    2.761732    0.471209
 C    1.000545    1.905796   -0.027357
 C    1.797323    1.074339    0.668184
 C    2.833390    0.356592   -0.072429
 C    3.707219   -0.524552    0.436766
 C    4.690914   -1.173582   -0.447004
 C    0.247773    4.244483    0.403081
 C    1.693597    0.823080    2.149128
 C   -5.382763   -2.649834   -0.825673
 C   -3.948930   -3.359969    1.101884
 H    6.362785   -2.103466   -1.483996
 H    5.873545   -1.844539    1.103413
 H   -0.948935    0.390445    1.418010
 H   -2.207366   -1.654150    1.613655
 H   -4.733919   -0.396721   -1.662064
 H   -3.436420    1.668689   -1.827674
 H   -0.380358    2.506043    1.506508
 H    1.190257    2.009070   -1.096458
 H    2.898353    0.548009   -1.142316
 H    3.713927   -0.791521    1.490672
 H    1.112482    4.438676    1.044639
 H   -0.586280    4.871644    0.730391
 H    0.495259    4.532862   -0.621423
 H    2.650375    1.030367    2.642209
 H    0.936816    1.445369    2.630299
 H    1.448022   -0.227531    2.348047
 H   -5.012991   -2.698854   -1.858930
 H   -6.173307   -1.890082   -0.778931
 H   -5.832331   -3.613517   -0.583396
 H   -3.977841   -2.943216    2.116695
 H   -2.942971   -3.765241    0.924459
 H   -4.658228   -4.187620    1.063183
