39 
5eei_ligand_ani-2x.xyz
 O    3.922960   -8.731011    2.006435
 O    5.422490   -6.836970    2.903718
 N    4.506120   -7.832549    1.115707
 C    5.192904   -6.805633    1.700218
 C    5.689492   -5.690297    0.811911
 C    5.428977   -5.818702   -0.687399
 C    6.170002   -4.754494   -1.498463
 C    5.793104   -3.323961   -1.120852
 C    6.416586   -2.281328   -2.047785
 C    5.995006   -0.843837   -1.709313
 C    6.399410   -0.453483   -0.296782
 O    5.659303   -0.613955    0.658192
 N    7.673586    0.047747   -0.195448
 C    8.347758    0.475616    0.967115
 C    9.721639    0.719911    0.864739
 C   10.442706    1.151564    1.969780
 C    9.801567    1.351896    3.188829
 C    8.434491    1.112388    3.283522
 C    7.698317    0.675374    2.186810
 H    4.285561   -8.413951    2.862104
 H    3.865673   -7.646868    0.355993
 H    6.765910   -5.616621    1.003679
 H    5.254800   -4.765058    1.208524
 H    4.351691   -5.727321   -0.884397
 H    5.740012   -6.811815   -1.031548
 H    5.963208   -4.913320   -2.566021
 H    7.254303   -4.887730   -1.371487
 H    6.099086   -3.109661   -0.089320
 H    4.698815   -3.214714   -1.141881
 H    6.128888   -2.493600   -3.086222
 H    7.511804   -2.363251   -2.006040
 H    4.906534   -0.755069   -1.761303
 H    6.421970   -0.141688   -2.435936
 H    8.210457    0.104207   -1.046896
 H   10.229926    0.565065   -0.085112
 H   11.510311    1.334155    1.875485
 H   10.360097    1.691220    4.056660
 H    7.922297    1.264072    4.231176
 H    6.636039    0.486573    2.268105
