49 
5ef8_ligand_ani-2x.xyz
 O  -16.592603   23.381426  -44.739119
 C  -15.801880   23.507212  -45.671111
 N  -16.149254   23.056795  -46.914520
 O  -17.487088   22.725231  -47.072302
 C  -14.439946   24.067701  -45.565654
 C  -13.987140   24.521847  -44.393493
 C  -12.668562   25.108191  -44.118918
 C  -11.699100   25.303282  -45.107337
 C  -10.457679   25.843075  -44.797323
 C  -12.352111   25.492160  -42.808301
 C  -11.102832   26.005669  -42.494626
 C  -10.131339   26.187993  -43.481840
 C   -8.748430   26.682689  -43.119209
 N   -7.692242   25.622149  -43.323798
 C   -7.886471   24.404427  -42.464437
 C   -8.577973   23.226184  -43.180392
 C   -8.770846   22.068509  -42.268737
 C   -7.789654   21.111302  -41.888050
 C   -8.455125   20.263270  -40.944832
 N   -9.760400   20.656468  -40.737870
 C   -9.926481   21.718497  -41.516973
 C  -11.240632   22.438975  -41.525953
 C   -7.785000   19.195930  -40.354512
 C   -6.464061   18.974652  -40.694323
 C   -5.797109   19.807379  -41.619796
 C   -6.447433   20.870644  -42.216284
 H  -15.806321   23.525367  -47.741526
 H  -17.811151   22.792111  -46.149154
 H  -13.833543   24.077491  -46.469349
 H  -14.663002   24.451591  -43.541495
 H  -11.903655   25.031488  -46.138898
 H   -9.737214   25.990220  -45.601102
 H  -13.097573   25.365860  -42.025739
 H  -10.861706   26.257038  -41.463535
 H   -8.734269   26.983919  -42.071345
 H   -8.455704   27.540933  -43.718739
 H   -6.749897   26.016065  -43.146136
 H   -7.769993   25.313658  -44.323480
 H   -8.490517   24.698369  -41.605834
 H   -6.912565   24.077923  -42.098739
 H   -7.964097   22.906353  -44.035926
 H   -9.544916   23.551568  -43.589935
 H  -11.159993   23.400536  -41.003519
 H  -11.579962   22.658338  -42.545088
 H  -11.991674   21.832577  -41.015864
 H   -8.306075   18.562064  -39.642636
 H   -5.925568   18.145544  -40.242173
 H   -4.758341   19.604114  -41.863036
 H   -5.932174   21.509314  -42.929139
