26 
5eh8_ligand_aiqm1.xyz
 C   20.724435   10.326963   14.229328
 O   20.919716    8.987615   13.807762
 C   19.962260    8.088686   14.150394
 C   18.815500    8.389904   14.886638
 C   17.898541    7.376991   15.170885
 C   18.102167    6.061066   14.754482
 C   17.126729    4.993946   15.079020
 C   15.670170    5.350009   15.132970
 C   17.580018    3.740036   15.319400
 C   16.720708    2.581654   15.630711
 O   17.383720    1.428617   15.910129
 O   15.517685    2.577095   15.651996
 C   19.263503    5.782470   14.016687
 C   20.176430    6.777117   13.712595
 H   19.808289   10.744650   13.805945
 H   20.686233   10.396625   15.318754
 H   21.580896   10.882428   13.860169
 H   18.622372    9.391837   15.240214
 H   17.016105    7.620055   15.748673
 H   15.098335    4.704554   14.469526
 H   15.268783    5.181664   16.131967
 H   15.497428    6.386199   14.846357
 H   18.650397    3.557516   15.290091
 H   18.330118    1.584592   15.878111
 H   19.437561    4.776631   13.653449
 H   21.064102    6.562879   13.133550
