39 
5ehv_ligand_ani-2x.xyz
 O   25.402324    9.684349   10.142568
 C   24.487783    8.830480   10.658642
 O   24.589154    7.647663   10.454946
 C   23.399139    9.455139   11.461177
 C   22.454517    8.681157   12.006562
 C   21.304456    9.088793   12.825549
 C   20.445437    8.078265   13.286740
 C   19.340514    8.400762   14.065634
 O   18.450801    7.492260   14.554681
 C   18.691096    6.127196   14.277741
 C   17.621593    5.281698   14.921255
 C   16.474414    5.853052   15.467123
 C   15.497637    5.042115   16.036676
 C   15.661547    3.659669   16.063298
 C   16.806462    3.074951   15.517575
 C   16.977907    1.576055   15.498922
 C   16.722895    0.911213   14.142308
 O   15.786086    1.484823   13.362648
 O   17.285520   -0.090200   13.792684
 C   17.778227    3.896796   14.949805
 C   19.079426    9.737182   14.392918
 C   19.931252   10.730492   13.935328
 C   21.040511   10.418119   13.155243
 H   25.191338   10.595058   10.388766
 H   23.397592   10.535857   11.586193
 H   22.541671    7.610296   11.825075
 H   20.663319    7.048288   13.021189
 H   19.678923    5.834231   14.662071
 H   18.699188    5.964955   13.189707
 H   16.353270    6.931661   15.445212
 H   14.600837    5.489559   16.459029
 H   14.898440    3.028921   16.515677
 H   16.287305    1.112706   16.217075
 H   17.986507    1.280845   15.798600
 H   15.461339    2.298531   13.778502
 H   18.666404    3.437730   14.516436
 H   18.210910    9.970695   15.001543
 H   19.730432   11.767725   14.188719
 H   21.692127   11.214911   12.809284
