39 
5ehv_ligand_xtb.xyz
 O   25.277014    9.952909   10.025640
 C   24.382489    9.052526   10.489869
 O   24.442715    7.903107   10.143188
 C   23.369352    9.583859   11.420312
 C   22.440225    8.764941   11.931476
 C   21.373004    9.096252   12.852820
 C   20.511613    8.068941   13.254450
 C   19.470294    8.320278   14.135466
 O   18.582740    7.395060   14.582155
 C   18.708478    6.058885   14.144506
 C   17.612342    5.229333   14.759926
 C   16.394101    5.803552   15.098817
 C   15.391342    5.026993   15.649404
 C   15.590637    3.672184   15.853672
 C   16.805754    3.082621   15.515419
 C   17.013346    1.605331   15.676678
 C   16.620014    0.836150   14.412893
 O   15.513738    1.276780   13.800935
 O   17.230807   -0.105135   14.002605
 C   17.808979    3.872167   14.968288
 C   19.286245    9.617185   14.623340
 C   20.133297   10.632636   14.229551
 C   21.171853   10.383643   13.350925
 H   25.124280   10.839789   10.376013
 H   23.413381   10.637048   11.661983
 H   22.494747    7.728995   11.616881
 H   20.679968    7.078780   12.860425
 H   19.688269    5.651485   14.430229
 H   18.621306    6.009722   13.046896
 H   16.245566    6.859379   14.940286
 H   14.448735    5.477480   15.921400
 H   14.806896    3.077995   16.305145
 H   16.392964    1.214729   16.488255
 H   18.054057    1.367892   15.896312
 H   15.155921    2.073464   14.225236
 H   18.753517    3.418686   14.704211
 H   18.473777    9.797747   15.308944
 H   19.981480   11.630388   14.613057
 H   21.823056   11.190221   13.055495
