45 
5ei2_ligand_ani-2x.xyz
 C    1.506018  -39.225774  -11.172806
 C   -1.480128  -37.593829   -9.031574
 C   -1.646227  -37.943070   -7.695887
 C   -1.242310  -34.960813   -4.787985
 C   -2.184956  -40.182984   -8.232516
 O   -1.959264  -39.190555   -7.256494
 C   -1.160190  -36.276759   -9.375318
 C   -1.502886  -36.969771   -6.699166
 C   -1.195258  -35.669273   -7.049913
 O   -1.072321  -34.651194   -6.155578
 C   -0.984512  -35.303922   -8.400874
 N   -0.667163  -33.963598   -8.652122
 C   -0.005195  -33.436041   -9.730613
 N    0.095475  -32.073042   -9.698474
 C    0.705932  -31.515410  -10.711311
 C    1.267511  -32.264789  -11.782914
 C    1.908862  -31.711490  -12.904153
 C    2.402699  -32.570759  -13.854871
 N    2.329667  -33.912134  -13.760277
 C    1.764925  -34.463067  -12.700509
 C    1.149647  -33.664394  -11.677847
 N    0.472527  -34.239867  -10.651038
 C    1.774809  -35.919604  -12.590006
 C    2.068388  -36.824138  -13.644536
 N    1.996277  -38.081917  -13.247628
 N    1.666929  -38.021360  -11.951019
 C    1.539129  -36.755647  -11.507964
 H    1.126626  -40.011715  -11.827116
 H    2.455387  -39.546031  -10.731645
 H    0.782353  -39.019886  -10.377468
 H   -1.617361  -38.325157   -9.820050
 H   -2.252031  -35.340352   -4.586944
 H   -0.502774  -35.697634   -4.449933
 H   -1.093955  -34.025968   -4.246151
 H   -3.007609  -39.906121   -8.905092
 H   -1.283060  -40.367747   -8.832158
 H   -2.449168  -41.091212   -7.688895
 H   -1.059216  -36.014962  -10.421038
 H   -1.649211  -37.271850   -5.667116
 H   -0.848980  -33.312366   -7.900693
 H    0.780160  -30.427670  -10.715877
 H    2.000496  -30.633602  -13.013120
 H    2.893540  -32.193462  -14.748720
 H    2.324895  -36.582756  -14.669119
 H    1.305424  -36.548606  -10.471667
