51 
5ei8_ligand_ani-2x.xyz
 C    1.083229  -39.086293  -11.049851
 N    1.383114  -37.927581  -11.855602
 C    1.344482  -36.638677  -11.466297
 N    1.753640  -38.066578  -13.135386
 C    1.946426  -36.835624  -13.573977
 C    1.687276  -35.867827  -12.567276
 C    1.794851  -34.418413  -12.724721
 N    2.477197  -33.934989  -13.747343
 C    2.643719  -32.602611  -13.861508
 C    2.133128  -31.685970  -12.974237
 C    1.368260  -32.164184  -11.895962
 C    1.156160  -33.550713  -11.777114
 N    0.365234  -34.059850  -10.803732
 C   -0.129238  -33.214037   -9.931344
 N    0.046961  -31.860483   -9.912835
 C    0.768029  -31.360774  -10.884893
 N   -0.895428  -33.705508   -8.903327
 C   -1.190800  -35.053461   -8.666401
 C   -1.348005  -35.467061   -7.325974
 O   -1.259376  -34.460973   -6.409433
 C   -1.408567  -34.804778   -5.048620
 C   -1.555234  -36.799036   -7.013265
 C   -1.669351  -37.759216   -8.027823
 C   -1.612460  -37.329591   -9.352229
 C   -1.388463  -35.996660   -9.670035
 C   -1.868752  -39.175922   -7.713498
 C   -1.701353  -39.850995   -6.475998
 N   -1.970106  -41.142852   -6.573927
 N   -2.314819  -41.327416   -7.852765
 C   -2.678998  -42.648985   -8.307834
 C   -2.264419  -40.186676   -8.572818
 H    1.988775  -39.669215  -10.861609
 H    0.664757  -38.733870  -10.104062
 H    0.352188  -39.713767  -11.565392
 H    1.099207  -36.373273  -10.447806
 H    2.261906  -36.658221  -14.595427
 H    3.228137  -32.280565  -14.720003
 H    2.305710  -30.620101  -13.102270
 H    0.906394  -30.279567  -10.900727
 H   -1.069198  -33.062635   -8.142606
 H   -2.396192  -35.241937   -4.855837
 H   -0.631177  -35.510099   -4.729179
 H   -1.307686  -33.875137   -4.487519
 H   -1.642479  -37.109887   -5.975297
 H   -1.731283  -38.044719  -10.162251
 H   -1.348357  -35.698569  -10.709842
 H   -1.377562  -39.453128   -5.521116
 H   -1.839825  -43.335711   -8.171601
 H   -3.539348  -43.013466   -7.741259
 H   -2.937394  -42.595166   -9.367084
 H   -2.528011  -40.190932   -9.624191
