51 
5ei8_ligand_xtb.xyz
 C    1.509673  -39.089524  -11.420065
 N    1.595173  -37.884821  -12.192496
 C    1.582698  -36.623970  -11.734465
 N    1.728544  -37.933985  -13.518994
 C    1.810892  -36.686805  -13.925808
 C    1.714856  -35.791953  -12.836480
 C    1.749456  -34.347900  -12.880346
 N    2.283932  -33.779836  -13.939015
 C    2.378454  -32.449186  -14.013014
 C    1.968897  -31.595901  -13.021146
 C    1.361870  -32.156837  -11.883715
 C    1.214198  -33.565280  -11.806741
 N    0.578581  -34.145236  -10.777471
 C    0.128068  -33.362468   -9.820841
 N    0.280624  -32.010497   -9.764010
 C    0.868093  -31.436145  -10.769741
 N   -0.532699  -33.877188   -8.758053
 C   -0.932061  -35.186304   -8.524259
 C   -1.252213  -35.541847   -7.197530
 O   -1.124791  -34.535341   -6.273579
 C   -1.476501  -34.805096   -4.939252
 C   -1.657377  -36.830425   -6.909844
 C   -1.768259  -37.791987   -7.918334
 C   -1.478546  -37.421620   -9.227781
 C   -1.069371  -36.136117   -9.526387
 C   -2.186077  -39.145513   -7.595948
 C   -2.809918  -39.614248   -6.419411
 N   -3.047696  -40.907361   -6.486100
 N   -2.595563  -41.307408   -7.669144
 C   -2.697397  -42.682317   -8.062520
 C   -2.072349  -40.287913   -8.374469
 H    2.499449  -39.401725  -11.076500
 H    0.868003  -38.927055  -10.554322
 H    1.097300  -39.874140  -12.052449
 H    1.496145  -36.392952  -10.693878
 H    1.918092  -36.446562  -14.963291
 H    2.828446  -32.079226  -14.925088
 H    2.093800  -30.526337  -13.098849
 H    0.969194  -30.357639  -10.722099
 H   -0.703742  -33.226186   -8.003098
 H   -2.524250  -35.110296   -4.854198
 H   -0.835168  -35.577191   -4.502509
 H   -1.328688  -33.869669   -4.401598
 H   -1.882665  -37.116854   -5.895935
 H   -1.594642  -38.136663  -10.027615
 H   -0.855178  -35.851938  -10.542502
 H   -3.105295  -39.065294   -5.548121
 H   -1.707671  -43.107565   -8.240984
 H   -3.181486  -43.221999   -7.251391
 H   -3.295034  -42.780572   -8.970839
 H   -1.654898  -40.442809   -9.348875
