20 
5eif_ligand_dft.xyz
 O   -2.635732   -1.564911   -0.187854
 C   -2.127790   -0.488952    0.017618
 O   -2.870734    0.572294    0.349877
 C   -0.633370   -0.291043   -0.046740
 C    0.151771   -1.446160   -0.026024
 C    1.534802   -1.376058    0.008352
 C    2.182445   -0.137339    0.018437
 C    3.685150   -0.054085    0.093766
 C    1.403313    1.016287   -0.038625
 C    0.010867    0.954594   -0.076683
 N   -0.772286    2.151790   -0.123491
 H   -2.285955    1.353045    0.483582
 H   -0.360411   -2.402422   -0.022777
 H    2.121685   -2.290146    0.034788
 H    4.031845   -0.246892    1.115743
 H    4.154998   -0.798651   -0.556461
 H    4.050102    0.934201   -0.200386
 H    1.888817    1.990061   -0.066579
 H   -1.161475    2.308349   -1.050235
 H   -0.225002    2.967391    0.129977
