20 
5eif_ligand_aiqm1.xyz
 O   19.325914   42.491375  -13.896858
 C   20.380014   43.042180  -13.703350
 O   20.691357   43.534816  -12.497363
 C   21.417394   43.162987  -14.789471
 C   21.220254   42.378966  -15.930231
 C   22.145921   42.351940  -16.960606
 C   23.312529   43.118964  -16.879662
 C   24.335895   43.086714  -17.981589
 C   23.502249   43.922521  -15.756311
 C   22.567886   43.959051  -14.720448
 N   22.780202   44.791772  -13.570437
 H   21.572205   43.961170  -12.551772
 H   20.319124   41.783667  -15.972729
 H   21.968384   41.729287  -17.828724
 H   24.715882   42.074873  -18.126146
 H   23.896810   43.407347  -18.926883
 H   25.177686   43.740981  -17.753330
 H   24.401654   44.527517  -15.684046
 H   22.271329   45.665101  -13.673176
 H   23.758213   45.017471  -13.457467
