34 
5eis_ligand_aiqm1.xyz
 C  -24.368709   -6.820799   77.240832
 C  -23.505847   -5.926447   77.836035
 C  -22.163343   -5.719150   77.354389
 C  -25.427480   -5.963998   78.854428
 N  -21.926961   -6.525976   76.244579
 N  -24.017452   -7.583385   76.155248
 C  -23.771010   -2.970578   79.127643
 C  -23.751627   -4.337779   79.792185
 N  -24.215225   -5.382565   78.886827
 N  -25.567894   -6.852549   77.870630
 O  -21.311369   -4.973319   77.801391
 C  -22.771811   -7.423827   75.593979
 O  -22.399143   -8.022185   74.605889
 C  -24.994750   -8.455356   75.495121
 C  -25.854628   -7.654192   74.552613
 C  -27.040342   -7.083668   74.997045
 C  -27.811670   -6.314143   74.144829
 C  -27.387513   -6.113031   72.840917
Cl  -28.350086   -5.155452   71.769729
 C  -26.201617   -6.666233   72.384695
 C  -25.438253   -7.433976   73.245524
 H  -26.197489   -5.721413   79.569115
 H  -21.012162   -6.439785   75.826348
 H  -23.440595   -2.212730   79.838234
 H  -23.095413   -2.954624   78.275514
 H  -24.775312   -2.711203   78.789231
 H  -24.405004   -4.367052   80.663297
 H  -22.744505   -4.595670   80.106889
 H  -25.602287   -8.917273   76.275131
 H  -24.423760   -9.210185   74.955049
 H  -27.351909   -7.236078   76.019201
 H  -28.734792   -5.872678   74.486253
 H  -25.881609   -6.497052   71.368628
 H  -24.507433   -7.861650   72.904581
