50 
5ek9_ligand_xtb.xyz
 O    2.410918    0.354002    2.031131
 C    0.269801   -1.070529    0.846911
 C    0.237144   -2.593450    0.688180
 C   -0.616531   -3.039493   -0.503446
 N   -1.973217   -2.554288   -0.297947
 C   -0.086162   -2.559277   -1.855490
 C   -3.061655   -3.358345   -0.088313
 C   -2.870164   -4.844755   -0.321177
 C   -2.070310   -1.152059   -0.166514
 C   -3.200384   -0.470046   -0.617385
 C   -3.287793    0.900562   -0.519795
 C   -2.237938    1.642882    0.024860
 C   -1.105142    0.959573    0.458584
 C   -1.007112   -0.419499    0.369578
 C    2.351968    0.230326    0.832895
 O    3.215877    0.776000   -0.047937
 C    4.299161    1.537766    0.508023
 C    4.721419    2.548995   -0.547883
 C    5.439805    0.605925    0.903801
 N    1.416718   -0.491069    0.171811
 O   -4.136223   -2.918958    0.260785
 C   -2.309290    3.085266    0.137358
 O   -1.230033    3.763708    0.595096
 C   -1.547725    5.065525    0.609299
 C   -2.820981    5.256881    0.167043
 C   -3.320140    3.973093   -0.141720
 H    0.426232   -0.822940    1.904568
 H    1.255611   -2.968077    0.582411
 H   -0.193221   -3.032015    1.590601
 H   -0.625753   -4.129744   -0.512677
 H    0.959520   -2.833839   -1.965677
 H   -0.188529   -1.481888   -1.953914
 H   -0.652944   -3.023167   -2.660258
 H   -3.848398   -5.311503   -0.238370
 H   -2.464787   -5.044173   -1.310132
 H   -2.219249   -5.278612    0.435049
 H   -4.017465   -1.026868   -1.043699
 H   -4.172464    1.402164   -0.877201
 H   -0.282668    1.514462    0.884809
 H    3.923254    2.049813    1.403266
 H    5.517833    3.176112   -0.158260
 H    5.076824    2.031074   -1.435068
 H    3.879161    3.177078   -0.825838
 H    5.786843    0.050191    0.035413
 H    5.096453   -0.095211    1.660514
 H    6.264531    1.184150    1.310320
 H    1.427792   -0.448857   -0.834057
 H   -0.796282    5.750191    0.949987
 H   -3.337799    6.189961    0.073513
 H   -4.297205    3.743268   -0.513147
