46 
5eko_ligand_dft.xyz
 O    0.370888    2.612330   -1.152534
 C    0.913866    1.695413   -0.560708
 C    2.368847    1.764219   -0.184425
 C    2.912403    3.027366    0.052058
 C    4.250369    3.150338    0.403747
 C    5.063446    2.024961    0.491626
 C    3.177249    0.632031   -0.089455
 C    4.524228    0.764153    0.242586
 N    5.342982   -0.385489    0.323023
 C    5.324227   -1.487080   -0.514640
 C    6.289770   -0.650588    1.273882
 N    6.859745   -1.813128    1.097466
 C    6.267592   -2.348632   -0.027610
 C    6.675726   -3.682209   -0.563179
 N    0.277194    0.544151   -0.169231
 C   -1.063975    0.170002   -0.382936
 C   -1.947259    0.901201   -1.184115
 C   -3.251250    0.449789   -1.355097
 C   -3.677016   -0.717059   -0.735812
 C   -2.807903   -1.450368    0.061666
 C   -1.505075   -1.005919    0.234027
 O   -4.960296   -1.185702   -0.953265
 C   -5.960200   -0.749461   -0.140396
 C   -5.786145    0.136292    0.920310
 C   -6.911948    0.484304    1.661796
 N   -8.144237    0.031613    1.431504
 C   -8.280829   -0.817156    0.406661
 C   -7.238763   -1.238954   -0.404952
 H    2.274430    3.898456   -0.048610
 H    4.673530    4.131835    0.591383
 H    6.119339    2.121992    0.722729
 H    2.784713   -0.359933   -0.294263
 H    4.688574   -1.525886   -1.386358
 H    6.487340    0.037975    2.084569
 H    6.095474   -3.943657   -1.452766
 H    7.737353   -3.684125   -0.830641
 H    6.526412   -4.463550    0.189128
 H    0.797465   -0.065833    0.443597
 H   -1.612634    1.812498   -1.658415
 H   -3.946126    1.006540   -1.975232
 H   -3.154728   -2.361555    0.537174
 H   -0.823822   -1.582317    0.855530
 H   -4.813881    0.546297    1.166294
 H   -6.805846    1.174908    2.496020
 H   -9.288484   -1.183462    0.222459
 H   -7.397806   -1.929091   -1.225740
