46 
5eko_ligand_ani-2x.xyz
 O  -12.791820   12.985873  -25.953659
 C  -13.479241   11.983099  -25.847850
 C  -14.443631   11.826371  -24.702507
 C  -14.856467   12.992347  -24.058456
 C  -15.762966   12.922332  -23.007037
 C  -16.248846   11.692383  -22.575780
 C  -14.913174   10.588930  -24.261399
 C  -15.813410   10.524061  -23.202530
 N  -16.298088    9.253084  -22.794515
 C  -16.654672    8.212422  -23.632609
 C  -16.496557    8.790507  -21.523947
 N  -16.949237    7.564213  -21.503358
 C  -17.057505    7.187855  -22.825443
 C  -17.551930    5.830681  -23.212960
 N  -13.472023   10.940604  -26.738639
 C  -12.710362   10.794810  -27.916985
 C  -11.758133   11.732473  -28.323631
 C  -11.041879   11.515309  -29.493324
 C  -11.271073   10.377395  -30.253029
 C  -12.208358    9.434636  -29.854820
 C  -12.927780    9.646712  -28.686981
 O  -10.530756   10.168718  -31.404546
 C  -11.035435   10.637202  -32.583215
 C  -12.234665   11.334954  -32.703240
 C  -12.612268   11.749261  -33.978276
 N  -11.911480   11.527533  -35.089021
 C  -10.765266   10.856660  -34.944971
 C  -10.283362   10.393108  -33.730240
 H  -14.454070   13.941444  -24.400193
 H  -16.094362   13.832049  -22.514130
 H  -16.973492   11.637515  -21.767891
 H  -14.554038    9.653727  -24.687176
 H  -16.612423    8.322154  -24.707123
 H  -16.269751    9.390199  -20.651449
 H  -17.724981    5.769393  -24.291258
 H  -16.826390    5.056831  -22.939647
 H  -18.489080    5.602602  -22.697054
 H  -14.180002   10.235528  -26.603846
 H  -11.593758   12.618083  -27.725086
 H  -10.302233   12.234351  -29.834581
 H  -12.369571    8.552585  -30.467397
 H  -13.663216    8.911284  -28.369045
 H  -12.861574   11.555359  -31.845486
 H  -13.544095   12.297150  -34.109179
 H  -10.198198   10.679773  -35.857886
 H   -9.345082    9.851838  -33.656605
