39 
5el2_ligand_xtb.xyz
 C   -3.098755   -0.956922   -0.427206
 C   -2.125691    0.173583   -0.075284
 C    0.196192    0.428887   -0.675633
 C   -2.464972    0.855823    1.258904
 C    2.496238    0.623782   -1.188553
 C    3.757085    0.331007   -0.377414
 C    3.653323    0.855766    1.049666
 C    2.638150    0.217589   -2.651864
 C   -1.496437    2.000041    1.597499
 N   -0.759179   -0.327650   -0.097659
 C   -2.861609   -2.206808    0.414638
 O    1.422847   -0.115130   -0.586964
 O   -0.030337    1.493843   -1.221629
 C   -0.475317   -1.524774    0.664531
 C   -1.413774   -2.655256    0.251377
 O   -1.487746    3.027144    0.647677
 H   -2.964186   -1.214224   -1.480189
 H   -4.119830   -0.596915   -0.296793
 H   -2.184885    0.934508   -0.861244
 H   -3.472611    1.265640    1.179044
 H   -2.449375    0.137022    2.078589
 H    2.245596    1.690699   -1.130325
 H    3.916565   -0.748758   -0.362935
 H    4.604104    0.796212   -0.883200
 H    2.809841    0.396252    1.559445
 H    3.510273    1.934179    1.049696
 H    4.559335    0.626717    1.605255
 H    1.715072    0.435027   -3.183885
 H    3.447727    0.774641   -3.114425
 H    2.848105   -0.847173   -2.726413
 H   -1.812211    2.461853    2.538123
 H   -0.483745    1.593321    1.743413
 H   -3.066579   -1.998654    1.466136
 H   -3.540112   -2.999280    0.094113
 H    0.562731   -1.804734    0.489689
 H   -0.603325   -1.314536    1.734211
 H   -1.209533   -3.534163    0.864377
 H   -1.228134   -2.914672   -0.792665
 H   -1.035143    2.706312   -0.152405
