39 
5el2_ligand_aiqm1.xyz
 C   -3.126501   -0.981455   -0.380669
 C   -2.133640    0.155908   -0.124084
 C    0.186575    0.378482   -0.767289
 C   -2.400411    0.879535    1.202614
 C    2.493908    0.698318   -1.188908
 C    3.718464    0.376583   -0.355109
 C    3.547871    0.724488    1.119205
 C    2.653554    0.371083   -2.659449
 C   -1.399963    1.987715    1.518086
 N   -0.763396   -0.381554   -0.186074
 C   -2.875883   -2.193546    0.513152
 O    1.428802   -0.114603   -0.640489
 O   -0.040906    1.427605   -1.361675
 C   -0.453892   -1.548620    0.636016
 C   -1.439723   -2.672501    0.341500
 O   -1.389310    3.010896    0.546530
 H   -3.034222   -1.287586   -1.426675
 H   -4.140639   -0.600539   -0.244728
 H   -2.216244    0.878256   -0.932854
 H   -3.397938    1.320385    1.140026
 H   -2.414656    0.166177    2.032196
 H    2.211577    1.746168   -1.069682
 H    3.952613   -0.685540   -0.473261
 H    4.556135    0.938305   -0.776079
 H    2.766125    0.116966    1.574602
 H    3.269474    1.772960    1.240734
 H    4.473425    0.555130    1.669336
 H    1.740923    0.624780   -3.194973
 H    3.478783    0.943257   -3.084730
 H    2.858126   -0.694197   -2.787019
 H   -1.672506    2.458163    2.463508
 H   -0.398479    1.557856    1.640840
 H   -3.055859   -1.935256    1.561437
 H   -3.577355   -2.992365    0.264469
 H    0.565810   -1.855744    0.417938
 H   -0.502809   -1.273133    1.696160
 H   -1.228005   -3.518330    0.999387
 H   -1.291884   -3.013493   -0.686677
 H   -0.948244    2.659645   -0.237613
