18 
5em3_ligand_xtb.xyz
 C   15.633078    0.798506   -7.909170
 C   14.492504    0.013452   -7.641806
 C   13.829127    0.142500   -6.390017
 C   12.693879   -0.657323   -6.158809
 C   12.276967   -1.519129   -7.137399
 C   13.004401   -1.569412   -8.338948
 C   15.447719    1.811231   -5.730959
 C   16.093106    1.675295   -6.968310
 N   14.058386   -0.844082   -8.585958
 C   14.334865    1.063419   -5.435970
 O   13.678329    1.163236   -4.249047
 H   16.117328    0.681900   -8.865001
 H   12.176819   -0.573376   -5.214408
 H   11.411952   -2.149359   -7.000296
 H   12.700680   -2.240798   -9.133224
 H   15.832280    2.513290   -5.002377
 H   16.965891    2.279701   -7.165925
 H   14.114990    1.817251   -3.689877
