18 
5em3_ligand_ani-2x.xyz
 C   15.640016    0.804059   -7.909278
 C   14.490789    0.014244   -7.637760
 C   13.830627    0.143828   -6.389818
 C   12.688990   -0.658848   -6.153908
 C   12.272871   -1.521331   -7.135004
 C   13.003140   -1.574268   -8.346297
 C   15.455873    1.824327   -5.718699
 C   16.102431    1.682345   -6.969133
 N   14.063597   -0.849312   -8.603958
 C   14.343571    1.071095   -5.434999
 O   13.668538    1.152366   -4.254851
 H   16.119620    0.678718   -8.874655
 H   12.169911   -0.574206   -5.204974
 H   11.402264   -2.156432   -6.998209
 H   12.682912   -2.256062   -9.135242
 H   15.846413    2.531993   -4.988759
 H   16.981673    2.287819   -7.174402
 H   14.099062    1.805965   -3.687553
