24 
5ene_ligand_ani-2x.xyz
 N  -31.844860    5.201622   -8.171440
 C  -22.834296    4.499253   -8.663055
 C  -23.051490    3.157837   -8.962296
 C  -24.218058    2.531572   -8.529531
 C  -27.664531    3.187417   -7.934294
 C  -29.521137    4.106378   -8.391844
 C  -28.882880    3.882321   -9.577793
 C  -30.798331    4.707441   -8.238460
 N  -28.710624    3.644379   -7.353103
 N  -29.168755    4.185094  -10.877206
 O  -27.696545    3.305105   -9.310742
 C  -26.446156    2.568979   -7.336855
 C  -25.170916    3.235935   -7.800410
 C  -23.787167    5.211611   -7.938838
 C  -24.953974    4.582903   -7.516117
 H  -21.923750    4.992069   -8.995546
 H  -22.312932    2.597323   -9.530473
 H  -24.395688    1.483684   -8.766266
 H  -30.147401    4.368567  -11.051437
 H  -28.742374    3.578792  -11.563479
 H  -26.424370    1.499194   -7.580651
 H  -26.568394    2.648038   -6.252363
 H  -23.621185    6.260546   -7.706242
 H  -25.705786    5.138440   -6.958260
