23 
5enf_ligand_xtb.xyz
 N  -31.444298    6.166377   -7.907744
 C  -28.013801    3.081731   -8.008470
 C  -29.601374    4.462951   -8.329384
 C  -30.602310    5.402739   -8.069409
 C  -29.267534    3.915546   -9.554091
 N  -28.775129    3.899923   -7.377760
 N  -29.706523    4.170793  -10.815927
 O  -28.265618    3.038031   -9.358068
 C  -26.929709    2.241003   -7.453461
 C  -25.539478    2.766190   -7.858055
 C  -24.464883    1.776720   -7.418049
 C  -25.288863    4.139446   -7.243035
 H  -30.603757    4.621051  -10.889271
 H  -29.499202    3.471992  -11.511001
 H  -27.050359    1.220518   -7.824511
 H  -27.026617    2.242674   -6.368020
 H  -25.512251    2.854018   -8.950108
 H  -24.486424    1.651067   -6.337849
 H  -24.617894    0.804574   -7.881420
 H  -23.479806    2.139476   -7.701349
 H  -26.066243    4.842368   -7.532143
 H  -25.283231    4.070567   -6.157675
 H  -24.328896    4.532647   -7.569499
