22 
5epr_ligand_dft.xyz
 O    2.734053    1.519960   -0.056427
 C    1.715438    0.861129    0.025403
 N    0.473213    1.408875   -0.148892
 C   -0.735855    0.701383   -0.052727
 C   -1.959864    1.347058    0.065274
 C   -3.138798    0.606554    0.106551
 C   -3.084216   -0.781425    0.038735
 C   -1.857143   -1.431002   -0.063714
 C   -0.672178   -0.699745   -0.114942
 N    0.586359   -1.275454   -0.282328
 C    1.704745   -0.625168    0.392584
 C    3.017313   -1.289313    0.010663
 H    0.455583    2.405102   -0.319281
 H   -1.988511    2.432365    0.119089
 H   -4.092452    1.116280    0.194446
 H   -3.998078   -1.366151    0.072982
 H   -1.813279   -2.516126   -0.115116
 H    0.592736   -2.281004   -0.168825
 H    1.585924   -0.662014    1.492251
 H    3.146210   -1.274599   -1.075029
 H    3.851953   -0.755157    0.467419
 H    3.033829   -2.329146    0.355069
