22 
5epr_ligand_ani-2x.xyz
 O    2.480965    2.117180   -0.110938
 C    1.571445    1.317106   -0.005560
 N    0.258269    1.685166   -0.153599
 C   -0.842502    0.815098   -0.095120
 C   -2.152066    1.283133   -0.065704
 C   -3.210199    0.382176   -0.020116
 C   -2.957857   -0.989386   -0.012690
 C   -1.649804   -1.457679   -0.049794
 C   -0.583097   -0.561732   -0.085889
 N    0.745056   -0.983435   -0.182444
 C    1.785323   -0.144451    0.384358
 C    3.156055   -0.633009   -0.058734
 H    0.109882    2.673824   -0.308977
 H   -2.341219    2.355122   -0.076790
 H   -4.231026    0.752913    0.006450
 H   -3.780381   -1.698478    0.019601
 H   -1.450022   -2.528811   -0.054685
 H    0.866204   -1.965615    0.029028
 H    1.735771   -0.155655    1.488880
 H    3.209337   -0.658234   -1.151299
 H    3.934344    0.037581    0.312677
 H    3.345322   -1.642814    0.322846
