61 
5f2f_ligand_ani-2x.xyz
 C   -4.501789    0.226374    1.378893
 C   -3.108523    0.266818    1.411350
 C   -0.205048   -0.383493    0.991476
 C   -0.141922    1.606743   -0.337822
 C   -5.180871    0.602341    0.224817
 C    1.182591   -0.414689    1.016796
 C    1.244168    1.627866   -0.316793
 C   -3.074987    0.969642   -0.885297
 C   -0.891933    0.619031    0.309453
 C   -2.377241    0.628096    0.276672
 C    2.030378    2.705112   -1.016628
 C    1.901312    0.594424    0.378295
 C   -5.124986    1.382555   -2.200839
 C    5.931639    0.021610   -0.572688
 C    5.659557   -1.364432   -1.136631
 C    5.478058    0.082314    0.877789
 C    4.174784   -1.703708   -0.992293
 C    4.021795   -0.353629    0.981131
 C   -7.137664    2.341475   -3.228520
 C    3.858569   -3.139835   -1.373244
 O   -4.537302    1.301190   -3.268434
 O    3.791520   -1.601231    0.379847
 O    7.322467    0.280890   -0.586868
 O    6.089261   -1.333942   -2.480148
 O    6.256003   -0.797120    1.656855
 O    4.222242   -3.333291   -2.737685
 O    3.268798    0.670195    0.380934
 O   -6.521992    0.125430    2.632248
 C   -5.345992   -0.193925    2.549652
 N   -4.708662   -0.953874    3.483889
 C   -5.408474   -1.503824    4.624702
 C   -4.467156    0.979281   -0.910851
 N   -6.400207    1.847152   -2.086281
 H   -2.572383    0.069801    2.338499
 H   -0.770490   -1.165390    1.493753
 H   -0.672920    2.398546   -0.863383
 H   -6.266782    0.552825    0.246915
 H    1.683080   -1.224031    1.537556
 H   -2.545210    1.214553   -1.801578
 H    2.693015    2.281488   -1.780237
 H    1.362639    3.420995   -1.505414
 H    2.665063    3.256787   -0.313922
 H    5.385031    0.769697   -1.168398
 H    6.241084   -2.093150   -0.545617
 H    5.555425    1.117751    1.242518
 H    3.585949   -1.019087   -1.622265
 H    3.729214   -0.453742    2.032283
 H   -8.125149    1.872865   -3.282321
 H   -6.568743    2.081952   -4.122058
 H   -7.257193    3.430446   -3.192130
 H    4.434371   -3.802067   -0.711805
 H    2.789236   -3.329054   -1.217001
 H    7.639518   -0.000361   -1.458540
 H    5.671746   -2.089935   -2.926727
 H    7.170943   -0.625123    1.387568
 H    4.233145   -4.277502   -2.928860
 H   -3.807479   -1.334000    3.242654
 H   -5.555685   -2.585914    4.527867
 H   -6.385831   -1.021942    4.671719
 H   -4.860522   -1.296913    5.549119
 H   -6.749564    2.049257   -1.163870
