75 
5f90_ligand_aiqm1.xyz
 C    4.549089   -0.172888   -0.286848
 C    5.103621    0.489530    1.004237
 C    6.005596    1.659921    0.652906
 C    7.015177    1.239387   -0.393333
 C    6.288987    0.819843   -1.680859
 C    6.961418   -0.312598   -2.441190
 O    4.134240    0.987255    1.892156
 O    6.736518    2.079682    1.795817
 O    7.807256    0.155138    0.099432
 O    4.898221    0.554729   -1.467628
 O    6.920001   -1.568040   -1.788862
 C   -0.302111   -0.550841   -1.000479
 C    0.698471    0.142207   -1.909349
 C    1.861513   -0.799678   -2.197238
 C    2.512291   -1.269073   -0.893669
 C    1.415652   -1.833513    0.028872
 C    1.880664   -2.206760    1.427082
 O    0.046490    0.478319   -3.120720
 O    2.749026   -0.187113   -3.112071
 O    3.161159   -0.173625   -0.249748
 O    0.347835   -0.918107    0.217718
 O    2.118507   -1.080979    2.260633
 C   -4.314548   -1.394042    0.749604
 C   -2.835560   -1.164430    0.515733
 C   -2.630956   -0.164846   -0.613918
 C   -3.514575    1.075650   -0.427709
 C   -3.500217    1.979977   -1.645463
 C   -5.040116   -0.075611    0.947927
 O   -4.421693   -2.232544    1.888675
 O   -2.219971   -2.389330    0.140973
 O   -1.303006    0.343863   -0.657564
 O   -4.878406    0.706569   -0.220814
 O   -4.290148    3.135848   -1.434961
 O   -6.377813   -0.365814    1.130962
 C   -7.179526    0.756517    1.508810
 C   -8.547270    0.240747    1.899030
 C   -9.474326    1.379265    2.306690
 H    4.928081   -1.201840   -0.368955
 H    5.701560   -0.276817    1.509303
 H    5.397256    2.482166    0.262519
 H    7.677509    2.080650   -0.615318
 H    6.291100    1.691849   -2.340670
 H    7.993577   -0.011919   -2.651248
 H    6.437222   -0.441435   -3.387461
 H    3.428251    0.332501    1.980988
 H    6.103106    2.175902    2.510445
 H    8.164042    0.452199    0.941092
 H    7.464637   -1.475612   -1.000793
 H   -0.709977   -1.445106   -1.490410
 H    1.072652    1.038003   -1.403076
 H    1.463916   -1.684022   -2.703523
 H    3.240053   -2.056780   -1.114813
 H    1.050852   -2.750202   -0.460867
 H    2.819573   -2.760001    1.374326
 H    1.118230   -2.850492    1.874797
 H    0.747631    0.699274   -3.739904
 H    3.459121    0.239803   -2.613751
 H    1.330078   -0.530675    2.197943
 H   -4.745053   -1.877262   -0.133819
 H   -2.385910   -0.774174    1.436311
 H   -2.870958   -0.669752   -1.560860
 H   -3.146739    1.633639    0.446689
 H   -2.484663    2.322050   -1.836360
 H   -3.854823    1.414566   -2.515202
 H   -4.636383    0.478981    1.813669
 H   -5.354196   -2.401083    2.038968
 H   -2.394648   -3.018285    0.844649
 H   -5.193111    2.843768   -1.291677
 H   -6.701951    1.275355    2.349806
 H   -7.254445    1.460297    0.676360
 H   -8.967203   -0.304377    1.051134
 H   -8.437734   -0.472879    2.720070
 H   -9.073783    1.921171    3.165436
 H  -10.460546    1.004709    2.576570
 H   -9.597513    2.090913    1.488699
