75 
5f90_ligand_xtb.xyz
 C    4.285013    0.056227   -0.182729
 C    4.475803    1.019227    1.010020
 C    5.788187    1.805439    0.822466
 C    6.833770    0.950299    0.095592
 C    6.308411    0.585131   -1.309046
 C    6.889422   -0.731403   -1.868212
 O    3.428052    1.944443    1.126285
 O    6.346211    2.174588    2.060879
 O    7.130563   -0.196015    0.863717
 O    4.891224    0.588907   -1.351885
 O    6.536085   -1.881904   -1.154525
 C   -0.274970   -0.513169   -1.376193
 C    0.744286    0.240966   -2.244373
 C    1.955753   -0.665996   -2.538248
 C    2.518037   -1.180469   -1.206185
 C    1.391222   -1.919897   -0.459649
 C    1.826624   -2.472487    0.906260
 O    0.114700    0.610911   -3.441634
 O    2.904188    0.012153   -3.315738
 O    2.930414   -0.067842   -0.420359
 O    0.326150   -1.030568   -0.207681
 O    2.165876   -1.461734    1.811887
 C   -4.114363   -1.467576    0.660339
 C   -2.658565   -1.244600    0.234927
 C   -2.566522   -0.152177   -0.842938
 C   -3.439017    1.064150   -0.492109
 C   -3.558349    2.017539   -1.686838
 C   -4.788024   -0.135217    1.002309
 O   -4.113981   -2.343016    1.760789
 O   -2.137312   -2.444598   -0.280977
 O   -1.263070    0.375747   -0.981016
 O   -4.756872    0.710116   -0.120768
 O   -4.254097    3.184227   -1.346318
 O   -6.093612   -0.417048    1.360906
 C   -6.840144    0.707562    1.812248
 C   -8.200352    0.219499    2.293626
 C   -9.067427    1.375951    2.773333
 H    4.740061   -0.916942    0.052378
 H    4.536386    0.411663    1.927093
 H    5.561948    2.693421    0.215262
 H    7.751822    1.546612   -0.017110
 H    6.597149    1.386360   -1.998986
 H    7.981378   -0.618943   -1.922736
 H    6.494192   -0.871893   -2.877554
 H    2.632081    1.523725    0.775010
 H    5.675483    2.662948    2.551524
 H    7.263666    0.113661    1.769798
 H    6.893652   -1.788664   -0.259662
 H   -0.700099   -1.341382   -1.970603
 H    1.077912    1.130495   -1.689510
 H    1.611319   -1.516646   -3.141220
 H    3.364534   -1.853029   -1.385233
 H    1.045385   -2.754015   -1.091474
 H    2.706453   -3.109340    0.789236
 H    0.996536   -3.076271    1.300548
 H    0.818458    0.843066   -4.064291
 H    3.538657    0.449334   -2.722002
 H    1.476546   -0.788607    1.740302
 H   -4.670020   -1.907651   -0.182752
 H   -2.076856   -0.924919    1.113013
 H   -2.893225   -0.594217   -1.796213
 H   -2.952756    1.590555    0.344548
 H   -2.559588    2.312958   -2.007773
 H   -4.063413    1.487260   -2.505479
 H   -4.246801    0.356485    1.842027
 H   -5.013447   -2.365965    2.110407
 H   -2.306895   -3.128402    0.379686
 H   -5.097276    2.912203   -0.964060
 H   -6.293368    1.201627    2.629006
 H   -6.957171    1.423431    0.990733
 H   -8.690338   -0.302430    1.471051
 H   -8.050676   -0.497363    3.102534
 H   -8.588751    1.897127    3.599213
 H  -10.032035    1.007569    3.111991
 H   -9.233915    2.088511    1.969039
