75 
5f90_ligand_dft.xyz
 C    4.158537    0.021576    0.278946
 C    4.385990    0.015091    1.795695
 C    5.846982    0.369695    2.100840
 C    6.770882   -0.100567    0.986102
 C    6.379127    0.574106   -0.343034
 C    6.749392   -0.235529   -1.590000
 O    3.582496    0.953179    2.476313
 O    6.307852   -0.254628    3.286740
 O    6.693794   -1.518068    0.873075
 O    5.007689    0.952116   -0.366274
 O    6.015511   -1.429131   -1.743354
 C   -0.476053    0.356125   -0.912767
 C    0.399072    1.603817   -0.926700
 C    1.650744    1.347249   -1.769013
 C    2.367949    0.097760   -1.269466
 C    1.384182   -1.074492   -1.216461
 C    1.934681   -2.374055   -0.635317
 O   -0.351578    2.664303   -1.467992
 O    2.488214    2.479958   -1.776279
 O    2.857616    0.425866    0.030956
 O    0.265070   -0.741465   -0.416755
 O    2.196243   -2.278506    0.746483
 C   -4.633846   -1.491373   -0.647702
 C   -3.144085   -1.241996   -0.456068
 C   -2.835942    0.249180   -0.544952
 C   -3.797556    1.072355    0.319466
 C   -3.664771    2.567605    0.074099
 C   -5.445906   -0.611809    0.291708
 O   -4.859003   -2.864383   -0.412077
 O   -2.401340   -1.920731   -1.445187
 O   -1.545328    0.557812   -0.058875
 O   -5.148750    0.741155    0.025152
 O   -4.535855    3.295610    0.907036
 O   -6.782802   -0.852290    0.040583
 C   -7.668645   -0.303440    1.007036
 C   -9.094391   -0.584265    0.569610
 C  -10.111515   -0.041643    1.572009
 H    4.339166   -0.977879   -0.122575
 H    4.178684   -1.004158    2.149019
 H    5.908398    1.463629    2.179834
 H    7.803859    0.180490    1.232363
 H    6.927619    1.522008   -0.391188
 H    7.835369   -0.423092   -1.577257
 H    6.524657    0.378036   -2.466646
 H    2.704018    0.901614    2.074317
 H    5.662301   -0.069992    3.980670
 H    6.738545   -1.861966    1.777153
 H    6.227967   -1.968493   -0.966396
 H   -0.824772    0.130223   -1.932500
 H    0.695141    1.813671    0.111787
 H    1.331855    1.186922   -2.806909
 H    3.211606   -0.138632   -1.928153
 H    1.062166   -1.277336   -2.252821
 H    2.874193   -2.635559   -1.132552
 H    1.202252   -3.168565   -0.839216
 H    0.285037    3.371669   -1.644022
 H    3.085062    2.384616   -1.016881
 H    1.433084   -1.816671    1.121831
 H   -4.911373   -1.212634   -1.675592
 H   -2.858211   -1.586664    0.550573
 H   -2.934677    0.565622   -1.593178
 H   -3.588407    0.863128    1.380652
 H   -2.643906    2.885405    0.289944
 H   -3.861487    2.765673   -0.991518
 H   -5.198622   -0.841727    1.346502
 H   -5.808067   -3.010819   -0.518714
 H   -2.669335   -2.848025   -1.395477
 H   -5.417503    2.934543    0.747060
 H   -7.466512   -0.758251    1.989861
 H   -7.498560    0.776953    1.095457
 H   -9.251751   -0.131777   -0.415783
 H   -9.220736   -1.666274    0.447752
 H   -9.987037   -0.507863    2.555922
 H  -11.133952   -0.237878    1.236746
 H  -10.003684    1.041336    1.699384
