61 
5fah_ligand_aiqm1.xyz
 C    3.745059   -2.058715    2.083154
 C    2.273223   -3.345769    0.640382
 C   -1.741625    0.478268    0.932682
 C   -2.916988    1.128266    0.250657
 C   -5.168978    2.191354   -1.062196
 C   -5.315852    1.500709    0.111574
 C   -4.180408    0.961073    0.762374
 C   -3.881445    2.387903   -1.624414
 C   -2.739609    1.867812   -0.959644
 C   -1.455902    2.096008   -1.533806
 C   -1.327200    2.782610   -2.715577
 C   -2.469161    3.280221   -3.383918
 C   -3.715320    3.092622   -2.845290
 C    4.254597   -0.964485    1.141613
 C    3.337609    0.227641    1.022333
 C    2.831650    0.625780   -0.218471
 C    1.611421    2.449911    0.789763
 C    2.096395    2.068500    2.041109
 C    1.995515    1.727010   -0.342619
 C    2.954192    0.970496    2.139389
 N    2.433452   -2.560857    1.720969
 C    0.795589   -3.683321    0.348103
 N    0.084837   -2.504046   -0.162973
 C    0.640794   -4.697027   -0.779150
 C   -0.242510   -2.620149   -1.579316
 C    0.596484   -3.816454   -2.027568
 O    3.194417   -3.771586   -0.044397
 C   -0.463316   -1.595099    0.694652
 O   -0.216497   -1.619987    1.905804
 N   -1.293225   -0.667633    0.147167
 O    0.754510    3.490145    0.568681
 C    0.374482    4.258782    1.693913
 H    3.697078   -1.694233    3.109796
 H    4.443188   -2.897889    2.055324
 H   -2.017457    0.120177    1.922398
 H   -0.920185    1.189057    1.073137
 H   -6.033322    2.593856   -1.577934
 H   -6.298304    1.351436    0.540710
 H   -4.311990    0.389682    1.673696
 H   -0.580029    1.745509   -1.007614
 H   -0.348458    2.961292   -3.143357
 H   -2.352983    3.820136   -4.314497
 H   -4.594401    3.483684   -3.345283
 H    5.237534   -0.648459    1.502876
 H    4.402332   -1.407291    0.154979
 H    3.097936    0.059336   -1.103901
 H    1.817414    2.607727    2.936307
 H    1.627336    2.049868   -1.310690
 H    3.327407    0.691804    3.119034
 H    1.594711   -2.142406    2.111131
 H    0.331995   -4.001595    1.284741
 H    1.463923   -5.406138   -0.795451
 H   -0.301882   -5.236027   -0.660525
 H    0.011379   -1.703814   -2.119119
 H   -1.313220   -2.813773   -1.714648
 H    1.605160   -3.485156   -2.272204
 H    0.167732   -4.316169   -2.895982
 H   -1.395150   -0.614415   -0.850718
 H   -0.302738    5.019475    1.316787
 H   -0.142426    3.650341    2.439303
 H    1.240728    4.737804    2.157125
