61 
5fah_ligand_xtb.xyz
 C    3.370062   -2.368994    2.582320
 C    2.075265   -3.407655    0.794868
 C   -1.503496    0.892216    0.837207
 C   -2.864650    1.195109    0.268939
 C   -5.418438    1.649518   -0.786739
 C   -5.263023    0.892926    0.339057
 C   -3.982096    0.665130    0.861245
 C   -4.298093    2.210924   -1.434028
 C   -2.997640    1.986690   -0.904200
 C   -1.895505    2.565363   -1.573559
 C   -2.072452    3.315719   -2.702997
 C   -3.355878    3.529257   -3.226374
 C   -4.443878    2.989814   -2.601346
 C    4.223423   -1.396669    1.746956
 C    3.425191   -0.198356    1.322039
 C    2.934365   -0.098915    0.025262
 C    1.902491    2.012946    0.535597
 C    2.377948    1.918867    1.836468
 C    2.186816    0.990676   -0.367571
 C    3.130215    0.820194    2.215187
 N    2.123885   -2.691805    1.926212
 C    0.650222   -3.459006    0.198673
 N    0.238160   -2.134413   -0.259666
 C    0.604048   -4.315371   -1.062421
 C    0.245838   -2.038900   -1.706828
 C    0.964054   -3.311287   -2.154090
 O    3.024237   -3.976475    0.290766
 C   -0.316406   -1.237427    0.594861
 O   -0.332138   -1.427729    1.809559
 N   -0.835227   -0.115448    0.038468
 O    1.151767    3.048731    0.045665
 C    0.911564    4.156963    0.878262
 H    3.129575   -1.931981    3.552248
 H    3.936044   -3.293640    2.731104
 H   -1.586929    0.476578    1.843802
 H   -0.892772    1.799052    0.885306
 H   -6.400209    1.828944   -1.201198
 H   -6.120881    0.462435    0.834184
 H   -3.874882    0.058237    1.748564
 H   -0.897706    2.429939   -1.186254
 H   -1.217757    3.752276   -3.199175
 H   -3.475399    4.124172   -4.120001
 H   -5.438826    3.151509   -2.991508
 H    5.085014   -1.091526    2.343867
 H    4.579576   -1.931333    0.866018
 H    3.152567   -0.883198   -0.684817
 H    2.173501    2.690897    2.561631
 H    1.820963    1.085052   -1.379043
 H    3.498829    0.763541    3.229417
 H    1.282782   -2.179940    2.189564
 H   -0.033754   -3.802425    0.982714
 H    1.323180   -5.129125   -1.002799
 H   -0.396594   -4.719387   -1.217836
 H    0.770288   -1.137836   -2.037826
 H   -0.782052   -2.016429   -2.096811
 H    2.042247   -3.154772   -2.150006
 H    0.655570   -3.631359   -3.147093
 H   -0.803728    0.031646   -0.954578
 H    0.332466    4.856893    0.277235
 H    0.331363    3.880413    1.765332
 H    1.846393    4.632574    1.190573
