61 
5fah_ligand_ani-2x.xyz
 C    3.746087   -1.931194    2.056721
 C    2.247123   -3.345456    0.764085
 C   -2.229179    0.061631    0.936521
 C   -3.308606    0.727164    0.122238
 C   -5.303431    1.767089   -1.578307
 C   -5.586990    0.728062   -0.735390
 C   -4.580103    0.209222    0.114145
 C   -4.005528    2.348649   -1.590877
 C   -3.007396    1.848027   -0.712445
 C   -1.736119    2.488113   -0.702249
 C   -1.449034    3.520605   -1.556522
 C   -2.434330    3.990963   -2.451127
 C   -3.680050    3.422837   -2.461492
 C    4.274001   -0.961601    0.988561
 C    3.417238    0.268840    0.831479
 C    2.462420    0.371956   -0.183915
 C    1.817236    2.562743    0.586971
 C    2.752883    2.471769    1.614125
 C    1.668162    1.502031   -0.309408
 C    3.536589    1.327659    1.727488
 N    2.425263   -2.450842    1.763072
 C    0.779502   -3.712025    0.474703
 N    0.069828   -2.577126   -0.124467
 C    0.669184   -4.806316   -0.585712
 C   -0.231178   -2.790062   -1.540844
 C    0.609657   -4.019771   -1.897778
 O    3.175429   -3.828837    0.127077
 C   -0.513028   -1.642760    0.685121
 O   -0.288213   -1.596508    1.899596
 N   -1.359500   -0.746494    0.085496
 O    1.015947    3.647717    0.381245
 C    1.152690    4.739932    1.267554
 H    3.700624   -1.435364    3.032210
 H    4.439749   -2.773669    2.142712
 H   -2.675935   -0.573539    1.711628
 H   -1.606692    0.788508    1.471765
 H   -6.062757    2.167551   -2.246597
 H   -6.580156    0.286445   -0.715981
 H   -4.821700   -0.628322    0.766290
 H   -0.985025    2.152528    0.004420
 H   -0.465246    3.978071   -1.532736
 H   -2.205265    4.811091   -3.127619
 H   -4.446778    3.789475   -3.140907
 H    5.296946   -0.674145    1.266193
 H    4.342236   -1.510648    0.043900
 H    2.351868   -0.447873   -0.890860
 H    2.877502    3.281783    2.324169
 H    0.922392    1.597814   -1.096498
 H    4.266007    1.264386    2.534720
 H    1.596834   -2.006145    2.149322
 H    0.293856   -3.972980    1.423703
 H    1.512656   -5.497617   -0.539761
 H   -0.256401   -5.372952   -0.430320
 H    0.042398   -1.916132   -2.144390
 H   -1.301329   -2.995254   -1.694282
 H    1.617921   -3.707756   -2.183972
 H    0.177228   -4.593479   -2.721590
 H   -1.656250   -0.924768   -0.862914
 H    0.433217    5.487395    0.931440
 H    0.920787    4.448670    2.300076
 H    2.164259    5.164711    1.230614
