63 
5fpk_ligand_ani-2x.xyz
 C    1.543817    2.095868    2.149680
 O    0.707249    2.997050    2.158024
 C    2.305311    1.663075    3.378379
 N    1.790229    1.373033    1.023291
 C    1.131329    1.681424   -0.229486
 C    0.853021    0.426518   -1.055087
 O    0.574271    0.511972   -2.253576
 C    1.860106    2.762994   -1.052284
 C    3.303295    2.429063   -1.355916
 C    4.332027    2.942425   -0.562784
 C    3.631072    1.577710   -2.414920
 C    5.661356    2.614007   -0.815564
 C    4.958660    1.250429   -2.670913
 C    5.975996    1.766902   -1.872516
 N    0.886849   -0.759511   -0.407185
 C    0.574361   -1.999773   -1.115479
 C   -0.952519   -2.206967   -1.118083
 O   -1.474543   -3.114285   -0.472929
 C    1.283595   -3.179578   -0.473931
 N   -1.663912   -1.302584   -1.838570
 C   -3.069988   -0.976288   -1.557556
 C   -3.251986   -0.380091   -0.151359
 O   -3.695277    0.758587   -0.006344
 C   -4.010942   -2.159240   -1.870199
 O   -3.884720   -2.500377   -3.237271
 C   -5.461567   -1.778932   -1.635030
 N   -2.908855   -1.165441    0.891801
 C   -2.811171   -0.627989    2.239207
 C   -1.586267    0.317190    2.315569
 O   -0.474831   -0.117279    2.601438
 C   -2.671579   -1.758211    3.245464
 N   -1.860283    1.609593    2.033629
 H    1.888414    0.714968    3.731536
 H    3.370705    1.515453    3.174844
 H    2.180368    2.418653    4.154728
 H    2.549207    0.706189    1.005577
 H    0.145540    2.079918    0.036574
 H    1.296004    2.903105   -1.979625
 H    1.800317    3.695499   -0.480791
 H    4.086397    3.606692    0.264166
 H    2.830994    1.166425   -3.026990
 H    6.450339    3.022829   -0.188421
 H    5.201479    0.589020   -3.498918
 H    7.012462    1.508203   -2.075873
 H    0.811940   -0.756398    0.605632
 H    0.905708   -1.846000   -2.149482
 H    0.937968   -3.319814    0.555537
 H    1.067828   -4.099461   -1.023826
 H    2.364419   -3.010434   -0.469179
 H   -1.112395   -0.566587   -2.272420
 H   -3.337859   -0.164695   -2.239313
 H   -3.735233   -3.014280   -1.238793
 H   -2.948016   -2.681403   -3.394686
 H   -5.725269   -0.925613   -2.268834
 H   -5.636690   -1.502570   -0.589712
 H   -6.113557   -2.617369   -1.892009
 H   -2.529507   -2.088958    0.702350
 H   -3.720428   -0.045054    2.428505
 H   -1.736506   -2.298680    3.068573
 H   -3.515954   -2.449677    3.162578
 H   -2.643484   -1.363479    4.265496
 H   -1.080385    2.264335    2.058009
 H   -2.659609    1.808292    1.440466
