34 
5fsc_ligand_aiqm1.xyz
 O   -1.470479   -1.083222    2.782265
 C   -0.293388   -0.346657    2.494567
 C   -0.134368   -0.079538    1.015453
 C   -1.342225    0.598502    0.365620
 O   -1.606307    1.879376    0.915575
 C   -2.686407    1.886226    1.837240
 C   -1.055955    0.793844   -1.115691
 O   -2.182916    1.358333   -1.774494
 C   -0.770606   -0.548051   -1.765369
 O   -1.922108   -1.369204   -1.749792
 O    0.040450   -1.360299    0.394279
 C    0.311651   -1.290451   -0.988590
 O    1.520549   -0.628193   -1.234317
 C    2.638653   -1.327975   -0.707599
 C    3.893940   -0.563282   -0.967930
 C    3.963101    0.628637   -1.560831
 H   -1.415579   -1.904763    2.286348
 H   -0.379080    0.599317    3.027475
 H    0.594269   -0.874304    2.861331
 H    0.761393    0.538476    0.864471
 H   -2.212504   -0.054785    0.465901
 H   -2.513061    1.202523    2.668711
 H   -3.615591    1.603445    1.331853
 H   -2.778805    2.903753    2.210813
 H   -0.186165    1.446753   -1.232857
 H   -2.444975    2.110534   -1.237636
 H   -0.423499   -0.387253   -2.790853
 H   -2.647036   -0.809019   -2.041442
 H    0.356152   -2.329745   -1.320741
 H    2.510480   -1.469602    0.371664
 H    2.696179   -2.323940   -1.163651
 H    4.801981   -1.050077   -0.626474
 H    3.074575    1.136943   -1.912144
 H    4.917680    1.113498   -1.703754
