34 
5fsc_ligand_ani-2x.xyz
 O   -1.466892   -1.055044    2.777861
 C   -0.293378   -0.323521    2.491569
 C   -0.137995   -0.063283    1.004476
 C   -1.355772    0.598058    0.363533
 O   -1.645616    1.861349    0.921428
 C   -2.703227    1.837803    1.866687
 C   -1.059876    0.812610   -1.118014
 O   -2.199893    1.346013   -1.767314
 C   -0.762060   -0.531629   -1.774755
 O   -1.924361   -1.329907   -1.759991
 O    0.036746   -1.344659    0.383227
 C    0.315111   -1.285929   -0.997743
 O    1.535721   -0.651272   -1.251970
 C    2.646491   -1.312134   -0.661557
 C    3.913613   -0.561827   -0.941232
 C    4.000402    0.571026   -1.627577
 H   -1.438102   -1.837848    2.208878
 H   -0.365543    0.624482    3.033366
 H    0.601394   -0.851482    2.853449
 H    0.749029    0.565977    0.837234
 H   -2.215852   -0.079618    0.452638
 H   -2.555577    1.062266    2.628958
 H   -3.667758    1.659805    1.368757
 H   -2.726937    2.823093    2.337385
 H   -0.200603    1.491723   -1.221859
 H   -2.511034    2.073950   -1.209289
 H   -0.401511   -0.366684   -2.802003
 H   -2.636892   -0.742663   -2.054542
 H    0.358644   -2.327277   -1.344717
 H    2.503291   -1.407240    0.424777
 H    2.717140   -2.339700   -1.056017
 H    4.813768   -1.018322   -0.529935
 H    3.118555    1.044816   -2.048486
 H    4.958974    1.056868   -1.787821
