44 
5fwr_ligand_aiqm1.xyz
 C   -4.341129    0.259231    0.052081
 C   -3.127541   -0.603501   -0.290644
 C   -3.493389   -1.830916   -1.104271
 C   -3.889682    1.549875    0.709779
 C    4.994544   -1.246884    1.249485
 C    6.321550   -1.661994    1.182483
 C    7.082381   -1.396228    0.047177
 C    6.506169   -0.714605   -1.021322
 C    5.177689   -0.303973   -0.955875
 C    4.402755   -0.563122    0.180802
 C    2.990809   -0.124152    0.251268
 C    2.448999    0.384600    1.438315
 C    1.128678    0.802294    1.501681
 C    2.155578   -0.206535   -0.863786
 C    0.820986    0.196073   -0.820060
 C    0.312655    0.705949    0.374481
 O   -0.982459    1.133374    0.548677
 C   -1.771177    1.341757   -0.596604
 O   -2.232731    0.128145   -1.135135
 O   -4.339018   -2.656573   -0.300713
 O   -5.235716   -0.352832    0.967462
 O   -4.991220    2.426134    0.908619
 C   -2.903539    2.273393   -0.185989
 O   -3.529196    2.697962   -1.380235
 H   -4.863839    0.500337   -0.884956
 H   -2.621682   -0.910100    0.635211
 H   -2.582308   -2.363410   -1.382316
 H   -4.015979   -1.518657   -2.013076
 H   -3.411796    1.314103    1.665857
 H    4.405464   -1.468026    2.131694
 H    6.759223   -2.194329    2.017263
 H    8.114155   -1.716801   -0.004242
 H    7.090452   -0.499382   -1.906818
 H    4.740265    0.237164   -1.786645
 H    3.075229    0.472872    2.317358
 H    0.711186    1.201942    2.416460
 H    2.547941   -0.614951   -1.787247
 H    0.203899    0.096176   -1.701408
 H   -1.189083    1.797205   -1.395172
 H   -4.619088   -3.407046   -0.824454
 H   -5.314319   -1.281887    0.729812
 H   -5.685551    1.903984    1.316948
 H   -2.484403    3.127480    0.355039
 H   -4.366062    3.085955   -1.108688
