75 
5g2b_ligand_ani-2x.xyz
 C    2.257517    4.484281   -1.190012
 N    8.040447   -0.768332   -1.053729
 O    2.504959    3.111352   -0.992106
 C    1.440579    2.286059   -0.820827
 N    9.818230   -1.497690    1.308725
 O    7.229675   -2.369530    0.322325
 C    0.122612    2.741892   -0.823744
 N   -2.935200    0.144765    0.117092
 O   11.195572   -0.201841    0.046644
 C   -0.928634    1.857161   -0.629333
 N   -4.017133   -0.679316    0.309479
 O   -5.260934   -2.473191   -0.343243
 C   -0.679825    0.500503   -0.439881
 C    0.643237    0.062174   -0.416952
 C    1.722604    0.921165   -0.607489
 C    3.109991    0.379349   -0.567941
 C    4.070086    0.710916   -1.531827
 C    5.335177    0.149311   -1.491442
 C    5.683558   -0.738374   -0.471922
 C    4.730144   -1.084636    0.485330
 C    3.460036   -0.535471    0.431833
 C    7.033405   -1.366955   -0.362901
 C    9.377696   -1.327070   -1.075615
 C   10.231247   -0.940405    0.143190
 C   -1.829427   -0.417498   -0.249701
 C   -5.196482   -0.065435    0.953084
 C   -5.953509    0.761000   -0.098191
 C   -7.125619    1.590571    0.437801
 C   -6.716308    2.975496    0.949066
 C   -5.869969    2.994091    2.223117
 C   -4.575025    2.176319    2.176461
 C   -4.791190    0.658422    2.247448
 C   -4.198741   -1.869774   -0.359753
 C   -3.004805   -2.359415   -1.156539
 C   -3.060264   -3.871527   -1.377123
 C   -2.573697   -4.642910   -0.183139
 C   -1.896505   -4.096662    0.826867
 C   -1.510501   -2.645952    0.889511
 C   -1.724437   -1.904611   -0.449393
 H    3.236720    4.949692   -1.308954
 H    1.660068    4.657210   -2.094632
 H    1.745648    4.930044   -0.327083
 H    7.931073    0.193567   -1.335379
 H   10.341393   -1.288501    2.145514
 H    8.973851   -2.055050    1.349116
 H   -0.097557    3.792952   -0.977389
 H   -1.953796    2.215030   -0.640475
 H    0.853381   -0.994446   -0.259203
 H    3.819547    1.419377   -2.314052
 H    6.044716    0.391253   -2.279541
 H    5.000330   -1.800022    1.255704
 H    2.726876   -0.804906    1.189370
 H    9.272226   -2.414947   -1.117365
 H    9.900116   -0.981574   -1.968425
 H   -5.826163   -0.914256    1.226268
 H   -6.317290    0.047726   -0.847968
 H   -5.244829    1.423138   -0.612404
 H   -7.847917    1.731196   -0.375377
 H   -7.658310    1.033314    1.222201
 H   -6.159923    3.482735    0.146319
 H   -7.616767    3.580166    1.118510
 H   -6.476303    2.625602    3.064339
 H   -5.627186    4.037981    2.460964
 H   -3.965536    2.465359    3.042075
 H   -3.981631    2.435769    1.289629
 H   -3.875650    0.177689    2.607611
 H   -5.563013    0.467151    3.005315
 H   -3.069770   -1.869285   -2.139540
 H   -2.453948   -4.137155   -2.254000
 H   -4.089085   -4.161073   -1.613168
 H   -2.784913   -5.710978   -0.168913
 H   -1.613997   -4.716739    1.676727
 H   -2.093153   -2.168230    1.686158
 H   -0.461916   -2.545134    1.199574
 H   -0.885158   -2.142584   -1.116194
