75 
5g2b_ligand_aiqm1.xyz
 C    2.321634    4.475337   -0.982594
 N    7.980928   -0.804986   -1.180499
 O    2.533259    3.074894   -0.925349
 C    1.440388    2.282703   -0.789544
 N    9.497473   -1.195898    1.274891
 O    7.190512   -2.438917    0.160337
 C    0.130832    2.763972   -0.792260
 N   -3.016271    0.143234   -0.075438
 O   11.189555   -0.304514    0.042313
 C   -0.935157    1.884449   -0.637375
 N   -4.084678   -0.715628    0.147811
 O   -5.211291   -2.624082   -0.357316
 C   -0.721736    0.512441   -0.476952
 C    0.599339    0.051192   -0.465342
 C    1.687758    0.905905   -0.623540
 C    3.064407    0.343835   -0.608413
 C    4.000576    0.668516   -1.597427
 C    5.272208    0.110599   -1.580191
 C    5.636092   -0.792403   -0.575793
 C    4.700396   -1.137711    0.399696
 C    3.431157   -0.577117    0.384644
 C    6.985877   -1.421648   -0.496925
 C    9.342525   -1.303510   -1.135534
 C   10.119077   -0.879033    0.112946
 C   -1.866748   -0.398064   -0.295422
 C   -5.288212   -0.076744    0.731116
 C   -5.881420    0.931712   -0.257288
 C   -7.013935    1.793122    0.315510
 C   -6.519353    3.082857    0.972199
 C   -5.768675    2.900962    2.288558
 C   -4.573092    1.945702    2.229625
 C   -4.988140    0.469998    2.135626
 C   -4.184308   -1.968433   -0.406457
 C   -2.924226   -2.457280   -1.099949
 C   -2.884487   -3.979682   -1.215221
 C   -2.420825   -4.635332    0.055994
 C   -1.820730   -3.978628    1.054991
 C   -1.557266   -2.499811    1.040730
 C   -1.707049   -1.898424   -0.369347
 H    3.310841    4.919291   -1.032887
 H    1.751083    4.754892   -1.871501
 H    1.806069    4.834261   -0.089746
 H    7.836101    0.145463   -1.472309
 H   10.016780   -1.084633    2.126737
 H    8.701633   -1.817904    1.249542
 H   -0.067593    3.819060   -0.910283
 H   -1.950730    2.259285   -0.633749
 H    0.806873   -1.002137   -0.330092
 H    3.730534    1.372846   -2.373015
 H    5.969348    0.357790   -2.373882
 H    4.990295   -1.852417    1.158290
 H    2.712234   -0.849927    1.149675
 H    9.289815   -2.391475   -1.157035
 H    9.889840   -0.951731   -2.005239
 H   -5.982723   -0.906777    0.844628
 H   -6.242345    0.365181   -1.121935
 H   -5.089442    1.588291   -0.627789
 H   -7.692282    2.063533   -0.497880
 H   -7.609466    1.212589    1.028322
 H   -5.866536    3.603147    0.260851
 H   -7.369171    3.748285    1.146700
 H   -6.468558    2.538276    3.051210
 H   -5.431976    3.884014    2.630039
 H   -3.983994    2.079152    3.141850
 H   -3.917733    2.213533    1.398030
 H   -4.216730   -0.164399    2.581577
 H   -5.886149    0.332679    2.747134
 H   -2.957777   -2.028656   -2.108830
 H   -2.214740   -4.266456   -2.032857
 H   -3.880980   -4.337874   -1.471768
 H   -2.589448   -5.703055    0.149357
 H   -1.522184   -4.520155    1.946823
 H   -2.250822   -2.013785    1.736193
 H   -0.551792   -2.287681    1.416811
 H   -0.823967   -2.165791   -0.945279
