69 
5g5v_ligand_xtb.xyz
 O   -6.781602   -1.546074   -1.335731
 C   -5.716420   -1.010997   -1.104411
 N   -5.575335   -0.064999   -0.132273
 C   -6.729346    0.404487    0.629426
 C   -6.494080    0.151559    2.115399
 C   -6.970024    1.883093    0.342463
 C   -4.448768   -1.245247   -1.915517
 C   -4.521232   -2.554560   -2.698546
 C   -4.099854   -3.736097   -1.884386
 C   -3.538765   -3.654381   -0.690665
 C   -3.251942   -2.356854   -0.001541
 C   -3.227281   -1.186898   -0.997094
 C   -3.295199    0.115000   -0.239541
 N   -4.422517    0.583910    0.147506
 C   -2.096362    0.862791    0.117445
 C   -0.819390    0.311111    0.018739
 C    0.313943    1.022320    0.377578
 C    0.181060    2.345421    0.837444
 O    1.332622    3.006024    1.134397
 C    1.258509    4.348893    1.545807
 C   -1.090660    2.902866    0.935258
 C   -2.207160    2.171872    0.586867
 C    1.638001    0.386782    0.261675
 C    2.548753    0.422105    1.313968
 C    3.783898   -0.184361    1.196587
 C    4.134695   -0.843064    0.022701
 C    3.216217   -0.907677   -1.019148
 C    1.985376   -0.292800   -0.903564
 C    5.437054   -1.556250   -0.123561
 O    5.502146   -2.711656   -0.508799
 N    6.546163   -0.860947    0.216639
 C    7.852383   -1.473835    0.044408
 C    8.852407   -0.307951   -0.036927
 O    9.510424   -0.068025    1.186187
 C    7.967207    0.905003   -0.337564
 C    6.674217    0.568565    0.403324
 H   -7.576403   -0.190885    0.275281
 H   -6.353394   -0.910804    2.302181
 H   -7.348752    0.494198    2.691719
 H   -5.605743    0.686883    2.443093
 H   -7.145796    2.038928   -0.719351
 H   -7.837942    2.232363    0.894482
 H   -6.100122    2.461045    0.643192
 H   -4.399678   -0.403762   -2.623099
 H   -5.552980   -2.701755   -3.029419
 H   -3.892919   -2.493275   -3.592883
 H   -4.280785   -4.700076   -2.338879
 H   -3.271422   -4.547623   -0.143834
 H   -4.022156   -2.178965    0.758167
 H   -2.295553   -2.414842    0.524517
 H   -2.325479   -1.251465   -1.610668
 H   -0.687024   -0.707246   -0.312573
 H    0.800524    4.981337    0.778679
 H    0.703328    4.454095    2.483591
 H    2.289322    4.663408    1.702104
 H   -1.219056    3.915644    1.283377
 H   -3.188845    2.609199    0.668568
 H    2.279818    0.918913    2.233079
 H    4.472590   -0.166041    2.028306
 H    3.481689   -1.442704   -1.918758
 H    1.287770   -0.326828   -1.727877
 H    7.844586   -2.086054   -0.862252
 H    8.075241   -2.129035    0.893729
 H    9.594568   -0.479084   -0.829603
 H   10.009418   -0.851512    1.439936
 H    7.788519    0.980372   -1.409444
 H    8.430842    1.818989    0.023835
 H    5.804925    1.097069    0.012540
 H    6.791767    0.800082    1.468117
