36 
5ggj_ligand_ani-2x.xyz
 C   -0.597914   -0.565584    1.269186
 C   -1.974929   -1.217713    1.291582
 C   -2.713743   -0.913225   -0.002233
 C   -2.738911    0.589316   -0.237102
 C   -1.311329    1.138025   -0.254287
 C   -1.262796    2.655080   -0.315901
 C    1.504535   -1.032997    0.219116
 C    2.171300   -0.026152    0.920646
 C    3.539872    0.129097    0.747516
 C    4.216486   -0.713715   -0.120199
 C    3.562209   -1.716840   -0.826451
 C    2.200298   -1.876783   -0.654748
 N    5.662467   -0.544697   -0.300282
 O    0.160611   -1.276153    0.318511
 O   -2.689867   -0.686602    2.382994
 O   -4.035359   -1.396237    0.148677
 O   -3.420467    0.784874   -1.456815
 O   -0.657497    0.803981    0.970913
 O   -1.911973    3.078194   -1.512277
 O    6.210707    0.342247    0.331297
 O    6.229643   -1.300764   -1.070350
 H   -0.119095   -0.651524    2.250705
 H   -1.840946   -2.305813    1.388518
 H   -2.211275   -1.404082   -0.849142
 H   -3.279812    1.056680    0.603996
 H   -0.773072    0.716352   -1.116615
 H   -0.217062    2.986354   -0.294449
 H   -1.775654    3.047703    0.573086
 H    1.643621    0.640170    1.592379
 H    4.087626    0.898196    1.280970
 H    4.127084   -2.355518   -1.496080
 H    1.660837   -2.653559   -1.187138
 H   -3.610487   -0.947114    2.228259
 H   -4.554178   -0.986896   -0.560376
 H   -3.198536    1.680434   -1.763357
 H   -2.082194    4.024964   -1.458847
