36 
5ggk_ligand_ani-2x.xyz
 C   -0.492555   -0.545297   -0.638837
 C   -1.411315   -1.719888   -0.978137
 C   -2.869368   -1.328223   -0.785028
 C   -3.067622   -0.730666    0.608452
 C   -2.109839    0.428975    0.827309
 C   -2.144491    0.984595    2.246724
 C    1.860494   -0.161894   -0.592081
 C    3.129727   -0.740024   -0.699038
 C    4.252971    0.066325   -0.678525
 C    4.092679    1.441704   -0.551942
 C    2.840984    2.026543   -0.441621
 C    1.711093    1.219148   -0.456918
 N    5.285297    2.295999   -0.533661
 O    0.813706   -1.042931   -0.631477
 O   -1.170773   -2.804812   -0.102487
 O   -3.740210   -2.424112   -0.968571
 O   -4.389706   -0.262386    0.743693
 O   -0.762148   -0.014216    0.634297
 O   -1.142058    1.958242    2.411812
 O    5.117507    3.498395   -0.422897
 O    6.372687    1.753269   -0.630453
 H   -0.595357    0.236664   -1.409505
 H   -1.248437   -2.021759   -2.025128
 H   -3.154339   -0.575228   -1.530690
 H   -2.837768   -1.512473    1.352477
 H   -2.340152    1.238576    0.113771
 H   -2.019912    0.153410    2.961824
 H   -3.112283    1.454074    2.441647
 H    3.222442   -1.817257   -0.798885
 H    5.250198   -0.350806   -0.760223
 H    2.763813    3.104005   -0.346399
 H    0.733228    1.677701   -0.356723
 H   -0.208669   -2.876253   -0.013146
 H   -3.341457   -3.167521   -0.490122
 H   -4.953230   -0.985307    0.431414
 H   -0.335039    1.543226    2.068873
