36 
5ggk_ligand_xtb.xyz
 C   -0.502196   -0.561896   -0.663391
 C   -1.408944   -1.769404   -0.960304
 C   -2.876183   -1.359393   -0.777098
 C   -3.055711   -0.739780    0.622623
 C   -2.061777    0.410726    0.807235
 C   -2.129454    1.003375    2.218706
 C    1.850692   -0.152269   -0.646116
 C    3.121263   -0.718601   -0.793390
 C    4.244138    0.073074   -0.736868
 C    4.104240    1.443274   -0.533260
 C    2.846949    2.013291   -0.382602
 C    1.719318    1.218669   -0.437660
 N    5.275110    2.276321   -0.476542
 O    0.811753   -1.030622   -0.730395
 O   -1.154853   -2.828021   -0.072533
 O   -3.739568   -2.448328   -0.948882
 O   -4.358257   -0.249308    0.781209
 O   -0.730540   -0.046423    0.616449
 O   -1.248350    2.079665    2.371928
 O    5.112273    3.465568   -0.303786
 O    6.354513    1.738635   -0.606585
 H   -0.682519    0.220597   -1.429764
 H   -1.231102   -2.092809   -1.998499
 H   -3.159309   -0.619780   -1.535047
 H   -2.839027   -1.517694    1.373953
 H   -2.287825    1.198394    0.071114
 H   -1.910970    0.207974    2.943241
 H   -3.137031    1.383266    2.389345
 H    3.197113   -1.781842   -0.953151
 H    5.232442   -0.345335   -0.848861
 H    2.766611    3.077349   -0.220544
 H    0.749521    1.668041   -0.303596
 H   -0.201159   -2.885909    0.061480
 H   -3.356695   -3.197859   -0.472162
 H   -4.958635   -0.889993    0.374592
 H   -0.355731    1.756850    2.198964
