42 
5ggn_ligand_aiqm1.xyz
 C   -1.377712    4.336934    1.652303
 C   -1.937804    3.212196    0.821561
 O   -2.911313    3.356837    0.090029
 N   -1.293269    2.023051    0.937421
 C   -1.535790    0.925354    0.015834
 C   -2.797559    0.132088    0.369483
 O   -4.006382    0.847501    0.241389
 C   -2.898175   -1.078269   -0.552707
 O   -3.988529   -1.897800   -0.193716
 C   -1.633936   -1.921332   -0.471355
 C   -1.644319   -3.091312   -1.430900
 O   -0.482659   -3.887584   -1.296296
 O   -0.506098   -1.098453   -0.829146
 C   -0.335045   -0.015541    0.039578
 O    0.772797    0.720024   -0.386140
 C    2.018603    0.160631   -0.304638
 C    2.293483   -1.074915    0.287734
 C    3.614288   -1.510728    0.346514
 C    4.620854   -0.718066   -0.180655
 N    6.005748   -1.187422   -0.109533
 O    6.868942   -0.467647   -0.587993
 O    6.209682   -2.265991    0.425802
 C    4.355114    0.507832   -0.781494
 C    3.044840    0.947475   -0.840243
 H   -0.770569    3.979363    2.483904
 H   -0.762471    4.967905    1.010640
 H   -2.200293    4.940226    2.024875
 H   -0.431800    2.003745    1.459605
 H   -1.656099    1.316793   -0.997648
 H   -2.702312   -0.220961    1.408558
 H   -3.819194    1.787271    0.089833
 H   -3.012963   -0.710844   -1.583582
 H   -4.754172   -1.323062   -0.109444
 H   -1.506637   -2.291762    0.557752
 H   -1.758198   -2.718614   -2.454218
 H   -2.497547   -3.721888   -1.189621
 H    0.254026   -3.400116   -1.671034
 H   -0.174300   -0.378235    1.068047
 H    1.508808   -1.705577    0.676423
 H    3.870698   -2.460626    0.791893
 H    5.167257    1.089966   -1.189868
 H    2.790106    1.891951   -1.300145
