76 
5ggp_ligand_xtb.xyz
 N   -0.845399   -2.001091    0.370879
 C   -2.077220   -1.708380   -0.386877
 C   -3.073020   -1.179686    0.660160
 O   -3.106482   -1.756452    1.736576
 C   -2.608548   -3.022887   -0.996849
 O   -1.482404   -3.640057   -1.583971
 C   -3.721734   -2.755807   -2.002457
 N   -3.840154   -0.130714    0.357778
 C   -3.647547    0.805690   -0.735819
 C   -2.302358    1.551652   -0.656010
 O   -1.802824    2.067605   -1.629987
 C   -4.802319    1.805275   -0.568642
 C   -5.040199    1.814129    0.939318
 C   -4.835431    0.351983    1.314924
 N   -1.761691    1.636740    0.579418
 C   -0.407042    2.125369    0.737176
 C    0.484892    1.386560   -0.264279
 O    0.251155    0.189936   -0.492096
 C    0.067817    1.808344    2.168614
 O   -0.183611    0.427282    2.371909
 C   -0.644808    2.676776    3.200099
 N    1.501401    2.018176   -0.820649
 C    2.297320    1.394571   -1.881479
 C    3.391871    0.450937   -1.319697
 O    4.570414    0.625339   -1.519072
 C    2.920241    2.578227   -2.612609
 C    3.110340    3.594139   -1.490369
 C    1.838720    3.425963   -0.662247
 N    2.880657   -0.571698   -0.610133
 C    3.679837   -1.647415   -0.077783
 C    2.909493   -2.944030   -0.215994
 O    1.700966   -3.012407   -0.256879
 C    4.039282   -1.444339    1.421640
 C    2.785597   -1.392098    2.292630
 C    4.862195   -0.171536    1.590261
 O    3.699417   -3.999458   -0.233816
 H   -1.126419   -2.319660    1.310340
 H   -0.267914   -2.707135   -0.119119
 H   -0.287276   -1.109495    0.400895
 H   -1.832748   -0.999906   -1.178446
 H   -2.992805   -3.654542   -0.178573
 H   -1.770227   -4.346112   -2.170918
 H   -3.346619   -2.153098   -2.826752
 H   -4.097116   -3.694322   -2.404176
 H   -4.548623   -2.239481   -1.523408
 H   -3.693226    0.317249   -1.712511
 H   -4.546552    2.783440   -0.969280
 H   -5.686483    1.437274   -1.088678
 H   -6.034683    2.166649    1.198631
 H   -4.306350    2.449936    1.435094
 H   -5.756589   -0.223698    1.186222
 H   -4.478918    0.195586    2.334382
 H   -2.092604    1.037251    1.320628
 H   -0.384657    3.202237    0.554245
 H    1.152191    1.995840    2.223393
 H   -0.033231    0.219386    3.301055
 H   -0.298568    2.428909    4.201432
 H   -0.434122    3.726104    3.017151
 H   -1.720335    2.523407    3.157304
 H    1.633828    0.794306   -2.512693
 H    3.864190    2.295019   -3.072139
 H    2.240196    2.959222   -3.373328
 H    3.987457    3.325799   -0.901913
 H    3.228760    4.610634   -1.855435
 H    1.030355    4.042990   -1.068751
 H    1.989278    3.675187    0.390131
 H    1.873356   -0.691283   -0.577038
 H    4.613453   -1.708393   -0.646829
 H    4.649676   -2.302363    1.718578
 H    3.066881   -1.192445    3.323524
 H    2.243586   -2.334520    2.266108
 H    2.121553   -0.600566    1.953472
 H    4.260072    0.706052    1.366751
 H    5.717982   -0.172376    0.921847
 H    5.220246   -0.093189    2.613539
 H    3.205007   -4.833861   -0.296611
