89 
5gic_ligand_aiqm1.xyz
 O    5.851592    2.086955    3.335786
 C    5.035330    1.847727    2.458279
 C    4.271689    2.920356    1.691520
 O    3.818784    3.930229    2.570997
 C    5.173349    3.516322    0.607370
 C    3.108407    2.133107    1.103671
 C    3.659936    0.708813    0.920884
 N    4.648686    0.632162    2.012368
 C    5.355795   -0.560600    2.429559
 C    6.601765   -0.858626    1.586052
 C    6.301973   -1.046164    0.122729
 C    6.595396   -0.045435   -0.805915
 C    6.277641   -0.200926   -2.153971
 C    5.665551   -1.370233   -2.600576
 C    5.377748   -2.381233   -1.687111
 C    5.688152   -2.215979   -0.337942
 C    2.599939   -0.385896    0.980810
 C    1.578101   -0.303011   -0.166613
 C    2.234848   -0.730063   -1.482367
 C    0.341977   -1.144484    0.175471
 C   -0.790141   -1.268336   -0.875224
 C   -1.101586    0.095121   -1.526826
 C   -1.963777   -1.747440    0.026577
 C   -1.895796   -0.818387    1.232396
 C   -0.378777   -0.635953    1.462689
 C   -0.549167   -2.344421   -1.942478
 C   -1.814335   -2.628014   -2.759650
 C   -3.000722   -2.983151   -1.858534
 C   -3.228755   -1.953183   -0.768757
 C   -4.438019   -1.371332   -0.645511
 C   -4.931105   -0.451586    0.384704
 C   -6.028404    0.324116    0.272208
 C   -6.486415    1.151112    1.419691
 C   -6.484153    0.711243    2.689340
 C   -6.995501    2.534832    1.089632
 O   -5.928351    3.393969    0.669357
 C   -7.973643    2.480081   -0.066643
 C   -7.325269    1.829528   -1.281498
 O   -8.249266    1.723123   -2.368917
 C   -6.885549    0.411795   -0.969952
 H    4.508748    4.030452    3.237183
 H    6.076844    3.937546    1.052283
 H    4.635497    4.312798    0.092062
 H    5.465534    2.760494   -0.128461
 H    2.290488    2.126308    1.827600
 H    2.745815    2.562952    0.170499
 H    4.176051    0.652067   -0.039730
 H    5.659273   -0.391659    3.464082
 H    4.670540   -1.409570    2.412883
 H    7.318940   -0.047247    1.720510
 H    7.063348   -1.761994    1.985817
 H    7.067470    0.871328   -0.463453
 H    6.509500    0.591105   -2.854405
 H    5.416023   -1.487037   -3.646832
 H    4.904090   -3.297041   -2.019393
 H    5.455889   -3.006959    0.368594
 H    3.086043   -1.365248    0.927480
 H    2.096205   -0.332527    1.952125
 H    1.255640    0.740910   -0.259589
 H    1.619897   -0.496594   -2.350772
 H    3.203206   -0.251306   -1.635582
 H    2.414484   -1.809237   -1.480631
 H    0.688982   -2.171065    0.363050
 H   -0.275384    0.432576   -2.156560
 H   -1.987354    0.054233   -2.162713
 H   -1.278712    0.876166   -0.783411
 H   -1.670128   -2.755080    0.368027
 H   -2.359780    0.137916    0.991894
 H   -2.400908   -1.222379    2.111283
 H   -0.143597    0.416994    1.635199
 H   -0.044694   -1.188515    2.343618
 H    0.267306   -2.063870   -2.610082
 H   -0.240316   -3.266063   -1.432023
 H   -2.071485   -1.755771   -3.366383
 H   -1.628854   -3.450972   -3.454678
 H   -2.798079   -3.945026   -1.374578
 H   -3.906382   -3.113940   -2.453101
 H   -5.176125   -1.641958   -1.397546
 H   -4.395657   -0.415947    1.328459
 H   -6.141459   -0.283277    2.944513
 H   -6.848655    1.338656    3.495147
 H   -7.474122    2.951685    1.981110
 H   -5.267632    3.422181    1.364138
 H   -8.851157    1.895801    0.226746
 H   -8.307426    3.493282   -0.314308
 H   -6.458718    2.425509   -1.583704
 H   -8.451973    2.610082   -2.671601
 H   -6.364272    0.011838   -1.838159
 H   -7.790970   -0.190734   -0.830212
