89 
5gic_ligand_xtb.xyz
 O    5.367571    2.224224    3.484276
 C    4.683667    1.988154    2.507701
 C    3.906960    3.044786    1.718593
 O    3.255589    3.936965    2.592336
 C    4.893728    3.788288    0.808385
 C    2.903783    2.202907    0.928768
 C    3.567482    0.823528    0.800447
 N    4.469121    0.787222    1.946728
 C    5.188911   -0.378718    2.395149
 C    6.461073   -0.648541    1.573336
 C    6.159367   -1.042538    0.156188
 C    6.440599   -0.185811   -0.900700
 C    6.138213   -0.544963   -2.202845
 C    5.549267   -1.769618   -2.466176
 C    5.272427   -2.635087   -1.421451
 C    5.576729   -2.273913   -0.121458
 C    2.564703   -0.331389    0.825400
 C    1.512234   -0.261965   -0.295823
 C    2.176624   -0.621034   -1.623522
 C    0.343008   -1.198766    0.061746
 C   -0.822180   -1.338545   -0.950275
 C   -1.232190    0.016866   -1.531760
 C   -1.944841   -1.892021   -0.027554
 C   -1.864773   -0.971689    1.183553
 C   -0.354273   -0.761276    1.374877
 C   -0.580282   -2.362278   -2.062665
 C   -1.863004   -2.640593   -2.843946
 C   -3.000061   -3.076271   -1.917216
 C   -3.213898   -2.088893   -0.798867
 C   -4.409735   -1.505963   -0.647804
 C   -4.867674   -0.628491    0.403479
 C   -5.878590    0.251861    0.303611
 C   -6.310012    1.018764    1.477687
 C   -6.404831    0.486800    2.693332
 C   -6.600772    2.487945    1.254917
 O   -5.392190    3.215801    1.086614
 C   -7.440885    2.701057   -0.001202
 C   -6.750989    2.052494   -1.201697
 O   -7.488166    2.230122   -2.394938
 C   -6.615679    0.547017   -0.971015
 H    3.847070    4.075556    3.345224
 H    5.684071    4.233323    1.409558
 H    4.369228    4.578604    0.276651
 H    5.337286    3.102822    0.090630
 H    1.988140    2.132527    1.516964
 H    2.670844    2.643692   -0.037607
 H    4.163154    0.772916   -0.119884
 H    5.477843   -0.174523    3.430196
 H    4.529984   -1.248135    2.374032
 H    7.080348    0.249759    1.591079
 H    7.010949   -1.452708    2.067521
 H    6.904207    0.770599   -0.700475
 H    6.363520    0.132560   -3.013658
 H    5.310854   -2.049910   -3.481220
 H    4.821628   -3.596439   -1.621437
 H    5.369758   -2.959188    0.688998
 H    3.101623   -1.275989    0.717899
 H    2.077292   -0.322806    1.800274
 H    1.132134    0.759781   -0.360649
 H    1.527766   -0.395646   -2.463078
 H    3.092884   -0.052134   -1.758194
 H    2.433049   -1.677502   -1.649436
 H    0.765863   -2.199999    0.204842
 H   -0.599760    0.284130   -2.374624
 H   -2.263982   -0.011847   -1.872917
 H   -1.152181    0.802317   -0.787031
 H   -1.615732   -2.888442    0.298847
 H   -2.356435   -0.024183    0.974094
 H   -2.321482   -1.413885    2.068354
 H   -0.143848    0.285739    1.593167
 H    0.007480   -1.353872    2.215184
 H    0.183854   -2.015873   -2.756931
 H   -0.223997   -3.295352   -1.617196
 H   -2.164804   -1.744186   -3.387079
 H   -1.676150   -3.425071   -3.580850
 H   -2.743105   -4.047002   -1.480670
 H   -3.916349   -3.204296   -2.495806
 H   -5.160763   -1.751852   -1.389947
 H   -4.377819   -0.719869    1.360126
 H   -6.203672   -0.555198    2.872675
 H   -6.711024    1.070289    3.546143
 H   -7.142985    2.888154    2.128371
 H   -4.803124    3.003405    1.818145
 H   -8.429117    2.259499    0.139395
 H   -7.553299    3.774795   -0.168561
 H   -5.748265    2.494547   -1.308046
 H   -7.601959    3.173890   -2.548565
 H   -6.111962    0.112015   -1.832056
 H   -7.625146    0.126549   -0.918659
