82 
5glu_ligand_xtb.xyz
 C    2.161733    2.226662    2.090697
 C    2.207252    1.886603    0.585699
 C    3.569711    2.328093    0.007415
 C    4.677575    1.308136    0.288697
 C    4.227644   -0.095339   -0.179395
 C    2.937366   -0.425661    0.593978
 C    2.264806   -1.812080    0.377915
 C    1.379806   -1.919346   -0.882734
 C    2.136973   -2.057122   -2.215778
 C    5.842711   -1.780470   -0.929402
 C    6.964132   -2.674256   -0.470761
 N    5.285849   -1.044157    0.049296
 O    1.795879    3.295458    2.494886
 O    2.626773    1.278263    2.896451
 O    5.897483    1.684952   -0.289936
 O    1.949837    0.534038    0.282911
 O    3.187906   -2.864442    0.487825
 O    0.476179   -2.995246   -0.709875
 O    3.100971   -3.096730   -2.185029
 O    5.447600   -1.733647   -2.085524
 C   -2.207255    1.188174    0.450328
 C   -0.669531    1.259253    0.508265
 C   -0.102152    2.670156    0.360923
 C   -0.858582    3.476598   -0.708814
 C   -2.367712    3.376375   -0.457071
 C   -3.174874    4.138070   -1.517433
 O   -0.250132    0.736672    1.739954
 O    1.256268    2.653855   -0.095394
 O   -0.580589    2.996944   -1.995064
 O   -2.789311    2.026071   -0.522286
 O   -4.524084    4.268261   -1.168215
 C   -5.547380   -2.869703    0.208311
 C   -6.002762   -1.410382    0.062445
 C   -4.815691   -0.581448   -0.433872
 C   -3.667245   -0.731398    0.578082
 C   -3.343976   -2.223606    0.773577
 C   -2.295939   -2.468585    1.868850
 O   -5.170018   -3.351553   -1.037759
 O   -7.097847   -1.340406   -0.800792
 O   -5.241087    0.753379   -0.572142
 O   -2.471054   -0.130006    0.117529
 O   -4.496673   -2.960199    1.145621
 O   -1.014168   -1.994899    1.554684
 H    3.430477    2.429887   -1.072022
 H    3.837663    3.305079    0.410057
 H    4.881550    1.269632    1.365709
 H    4.042993   -0.078579   -1.258790
 H    3.192864   -0.393150    1.660768
 H    1.571044   -1.910789    1.226273
 H    0.756489   -1.025024   -0.940021
 H    2.596693   -1.101216   -2.470702
 H    1.395620   -2.298130   -2.988548
 H    7.379806   -3.201531   -1.324293
 H    6.580172   -3.396171    0.246922
 H    7.743901   -2.085079    0.005740
 H    5.612402   -1.147885    0.996592
 H    2.507320    1.549031    3.823923
 H    5.803921    1.707280   -1.250356
 H    3.390219   -3.166488   -0.420258
 H    0.997127   -3.808831   -0.672715
 H    3.970712   -2.725224   -2.417166
 H   -2.615707    1.450298    1.448255
 H   -0.309797    0.653920   -0.332982
 H   -0.168689    3.181588    1.327489
 H   -0.548268    4.530545   -0.624340
 H   -2.591338    3.782797    0.542210
 H   -3.047917    3.618784   -2.473828
 H   -2.783178    5.152671   -1.604511
 H   -0.492752   -0.210414    1.762167
 H    0.359023    2.771237   -2.006466
 H   -4.919577    3.390679   -1.096623
 H   -6.363498   -3.462830    0.643961
 H   -6.284434   -1.046918    1.066086
 H   -4.485322   -0.977230   -1.405606
 H   -3.974261   -0.283707    1.535354
 H   -2.951183   -2.594479   -0.186162
 H   -2.599161   -1.959307    2.786592
 H   -2.276838   -3.548592    2.065756
 H   -5.022602   -4.302904   -0.981693
 H   -7.140326   -0.430231   -1.122804
 H   -4.441782    1.284314   -0.735341
 H   -0.715477   -2.385385    0.713038
