81 
5gmi_ligand_ani-2x.xyz
 N    0.992675    3.250409    1.234674
 C    2.404203    2.784361    1.305515
 C    2.777081    2.024861    0.032703
 O    2.360802    2.397127   -1.063018
 C    2.539635    1.981008    2.595228
 O    1.878347    2.766239    3.578291
 N    3.604381    0.950534    0.144014
 C    3.436170   -0.142614   -0.790681
 C    2.184990   -0.950487   -0.385033
 O    1.841384   -1.039159    0.793992
 C    4.689700   -1.013001   -0.779178
 O    4.932122   -1.408250    0.565329
 N    1.507208   -1.529135   -1.402454
 C    0.363620   -2.432761   -1.251528
 C   -0.899982   -1.669867   -0.816981
 O   -1.831470   -1.498841   -1.604042
 C    0.695128   -3.646665   -0.352198
 C    1.844679   -4.460501   -0.902014
 C    1.630286   -5.423218   -1.888824
 C    3.150984   -4.230833   -0.461999
 C    2.692993   -6.144475   -2.424537
 C    4.215781   -4.948333   -0.997514
 C    3.989784   -5.909337   -1.978720
 N   -0.929773   -1.230505    0.461099
 C   -2.079701   -0.499340    0.973306
 C   -1.968047    0.964146    0.505418
 O   -1.437746    1.837323    1.191827
 C   -2.206235   -0.626367    2.495652
 C   -3.443889    0.124529    2.990517
 C   -2.262226   -2.094084    2.921933
 N   -2.495349    1.198327   -0.722544
 C   -2.435009    2.512825   -1.356653
 C   -0.978002    2.999075   -1.372083
 O   -0.596914    4.062140   -0.918432
 C   -3.381061    3.557781   -0.739301
 C   -4.773384    2.982267   -0.439394
 C   -3.463584    4.792455   -1.639721
 C   -5.519253    2.428919   -1.652730
 O   -0.179226    2.117475   -1.951914
 H    0.802962    3.765790    2.108862
 H    0.311242    2.466141    1.182978
 H    0.826005    3.853248    0.414780
 H    3.055848    3.659511    1.356789
 H    3.594224    1.830814    2.868014
 H    2.052698    1.002145    2.469000
 H    1.754942    2.231756    4.371416
 H    3.846095    0.621258    1.069648
 H    3.296138    0.283881   -1.787785
 H    4.553449   -1.890717   -1.429335
 H    5.521622   -0.411628   -1.169306
 H    5.857928   -1.667097    0.642030
 H    1.880164   -1.414543   -2.332295
 H    0.128926   -2.786221   -2.256280
 H    0.951067   -3.288438    0.647592
 H   -0.205176   -4.267251   -0.269967
 H    0.617462   -5.615444   -2.240328
 H    3.337770   -3.477796    0.301433
 H    2.507584   -6.892665   -3.191383
 H    5.227348   -4.755848   -0.646181
 H    4.821540   -6.470505   -2.396209
 H   -0.044063   -1.173373    0.960050
 H   -2.966643   -0.934222    0.495681
 H   -1.315894   -0.159533    2.941069
 H   -4.354241   -0.291228    2.539471
 H   -3.391998    1.188366    2.742056
 H   -3.537675    0.033107    4.077913
 H   -3.115225   -2.601307    2.452431
 H   -1.351249   -2.634835    2.646234
 H   -2.388664   -2.172641    4.007294
 H   -2.555281    0.383618   -1.327498
 H   -2.705636    2.350594   -2.407645
 H   -2.935631    3.854544    0.213948
 H   -4.687025    2.200036    0.324032
 H   -5.371976    3.782875    0.013725
 H   -3.834444    4.532510   -2.639090
 H   -2.483997    5.259865   -1.752240
 H   -4.150498    5.531089   -1.211121
 H   -6.502879    2.048333   -1.358546
 H   -4.973804    1.600204   -2.117305
 H   -5.679041    3.197880   -2.416791
 H    0.754824    2.393599   -1.795146
