45 
5gmu_ligand_xtb.xyz
 C    2.349842   -0.080439    0.350419
 C    2.773996    1.120702    0.885887
 O    2.089100    1.797815    1.857134
 C    3.968383    1.701898    0.433816
 O    4.397338    2.876793    0.967426
 C    4.699116    1.068229   -0.555718
 C    4.249330   -0.122334   -1.101182
 C    3.076411   -0.709413   -0.655267
 C    2.551740   -1.968026   -1.292311
 C    1.640922   -1.626341   -2.490491
 C    0.546107   -0.712597   -2.008762
 O    0.459383    0.463914   -2.239511
 O   -0.327803   -1.373724   -1.229519
 C   -1.217768   -0.563743   -0.458084
 C   -1.655608   -1.363658    0.762279
 C   -2.580574   -0.525238    1.644938
 C   -1.818697    0.663540    2.249175
 O   -0.635764    0.862440    2.136033
 O   -2.603956    1.408389    3.017999
 O   -3.007974   -1.348760    2.711163
 C   -3.780081   -0.017884    0.829665
 C   -3.316085    0.770454   -0.391434
 O   -2.613854    1.901739    0.071668
 C   -2.432028   -0.117620   -1.283648
 O   -3.204057   -1.201453   -1.733966
 H    1.439941   -0.524849    0.728655
 H    1.222315    1.387135    1.997849
 H    3.739310    3.148069    1.623118
 H    5.613817    1.526942   -0.895055
 H    4.823327   -0.597900   -1.882468
 H    1.975164   -2.544833   -0.567267
 H    3.378668   -2.583285   -1.650025
 H    1.207878   -2.540992   -2.896094
 H    2.211148   -1.106897   -3.259876
 H   -0.673604    0.338359   -0.155322
 H   -0.785877   -1.673876    1.341344
 H   -2.198032   -2.255875    0.448905
 H   -2.111540    2.159505    3.386059
 H   -3.625651   -0.848474    3.258348
 H   -4.362480   -0.876084    0.495474
 H   -4.400129    0.625951    1.454929
 H   -4.196381    1.077634   -0.976158
 H   -2.189513    2.344606   -0.673191
 H   -2.070480    0.473585   -2.142582
 H   -2.605000   -1.855703   -2.113951
