90 
5gu4_ligand_xtb.xyz
 N    2.220333    2.457952    1.336987
 C    3.509011    1.963774    1.856212
 C    3.854472    0.599412    1.243185
 O    4.826192    0.446239    0.533762
 N    3.004686   -0.389158    1.572835
 C    3.072745   -1.674986    0.887433
 C    2.411645   -1.394758   -0.467396
 O    1.209457   -1.455995   -0.656730
 C    2.372363   -2.771079    1.690065
 C    1.946655   -3.929629    0.822768
 C    2.783658   -4.434496   -0.165254
 C    0.698959   -4.511887    1.002020
 C    2.371631   -5.485148   -0.965884
 C    0.286293   -5.563877    0.203335
 C    1.119946   -6.049595   -0.788154
 N    3.269549   -0.942856   -1.402207
 C    2.713317   -0.285810   -2.568830
 C    1.754750    0.797402   -2.076723
 O    2.109617    1.627615   -1.250088
 N    0.513525    0.765074   -2.569578
 C   -0.486570    1.719840   -2.135178
 C   -0.833653    1.519341   -0.657406
 O   -0.799005    2.447512    0.140060
 C   -1.751257    1.608065   -2.986057
 C   -1.542179    1.999920   -4.456764
 C   -2.769622    1.586954   -5.266639
 C   -1.295026    3.498295   -4.608979
 N   -1.217055    0.291323   -0.305734
 C   -1.666103   -0.009700    1.044603
 C   -0.885113    0.866620    2.014816
 O    0.335715    0.749530    2.136696
 C   -1.416087   -1.496592    1.334616
 C   -2.269656   -2.361414    0.447457
 C   -1.737856   -2.911590   -0.712724
 C   -3.601244   -2.600026    0.763258
 C   -2.526380   -3.693846   -1.539596
 C   -4.388495   -3.380251   -0.064612
 C   -3.852426   -3.927683   -1.218566
 N   -1.594674    1.703013    2.777019
 C   -0.979626    2.727377    3.583378
 C   -1.799231    2.920627    4.858393
 O   -1.108443    3.572653    5.781923
 C   -0.934045    4.072990    2.809502
 C    0.275646    4.884830    3.192902
 O   -0.021764    5.950816    3.898282
 O    1.409994    4.585503    2.883469
 O   -2.931499    2.550054    4.975832
 H    1.997350    3.396276    1.729862
 H    1.438037    1.821719    1.630272
 H    2.218021    2.452212    0.298626
 H    3.457008    1.882227    2.943326
 H    4.307571    2.656683    1.586112
 H    2.123322   -0.181924    2.027408
 H    4.130227   -1.908839    0.738391
 H    3.049353   -3.123195    2.472599
 H    1.491703   -2.351916    2.181125
 H    3.767144   -4.013085   -0.311775
 H    0.039722   -4.143206    1.774459
 H    3.032808   -5.865390   -1.730185
 H   -0.690559   -5.998020    0.354371
 H    0.799629   -6.867269   -1.415549
 H    4.207672   -0.689517   -1.115652
 H    2.191326   -1.018523   -3.189451
 H    3.522954    0.171187   -3.137129
 H    0.226979    0.023184   -3.188732
 H   -0.057617    2.725919   -2.210786
 H   -2.516307    2.255895   -2.553809
 H   -2.119604    0.579807   -2.932644
 H   -0.671032    1.462864   -4.848713
 H   -2.941747    0.515107   -5.198227
 H   -2.635085    1.843627   -6.313667
 H   -3.655042    2.101125   -4.900821
 H   -1.198417    3.754068   -5.660600
 H   -0.382175    3.806708   -4.105919
 H   -2.126852    4.064313   -4.196458
 H   -1.078378   -0.504066   -0.914287
 H   -2.738333    0.216951    1.121230
 H   -1.638382   -1.690591    2.385596
 H   -0.363296   -1.698886    1.138038
 H   -0.695252   -2.755870   -0.949364
 H   -4.020699   -2.183747    1.668402
 H   -2.100478   -4.128326   -2.431714
 H   -5.419880   -3.566363    0.193461
 H   -4.465694   -4.540960   -1.860784
 H   -2.598628    1.767389    2.684694
 H    0.034053    2.403143    3.840076
 H   -1.639734    3.731145    6.580588
 H   -1.835930    4.654205    2.998521
 H   -0.871592    3.831495    1.744609
 H    0.762483    6.469687    4.146388
