90 
5gu4_ligand_aiqm1.xyz
 N    2.599498    2.512872    1.367761
 C    3.049460    1.480708    2.341278
 C    3.430029    0.228903    1.560035
 O    4.438455    0.249118    0.867561
 N    2.587839   -0.811881    1.664795
 C    2.714239   -1.969123    0.767889
 C    2.091448   -1.547799   -0.570494
 O    0.920301   -1.769069   -0.849135
 C    2.034453   -3.204795    1.343616
 C    2.391170   -4.437104    0.549720
 C    3.674578   -4.984400    0.629854
 C    1.457076   -5.027712   -0.302115
 C    4.013705   -6.104120   -0.124347
 C    1.796321   -6.148204   -1.058203
 C    3.075809   -6.688566   -0.971731
 N    2.893532   -0.836724   -1.392113
 C    2.283717   -0.141178   -2.500940
 C    1.294588    0.906800   -1.984290
 O    1.578023    1.644353   -1.036202
 N    0.100691    0.934588   -2.582986
 C   -0.928857    1.883557   -2.184860
 C   -1.414532    1.657711   -0.754636
 O   -1.815884    2.604152   -0.086802
 C   -2.114233    1.837848   -3.142724
 C   -1.785151    2.158602   -4.602242
 C   -3.069388    2.129935   -5.426275
 C   -1.086010    3.506536   -4.751334
 N   -1.408708    0.394973   -0.268747
 C   -1.808294    0.189881    1.107809
 C   -0.953524    1.098091    1.985601
 O    0.274011    1.166467    1.842445
 C   -1.626159   -1.268499    1.527510
 C   -2.534271   -2.181255    0.746854
 C   -2.041859   -2.925411   -0.328234
 C   -3.889916   -2.270286    1.067459
 C   -2.894861   -3.744909   -1.067242
 C   -4.738807   -3.089232    0.329819
 C   -4.243052   -3.829176   -0.740765
 N   -1.575789    1.822732    2.928846
 C   -0.853996    2.881590    3.589768
 C   -1.584306    3.265522    4.856079
 O   -0.784590    3.976656    5.660993
 C   -0.722673    4.114431    2.654006
 C    0.469199    4.947050    3.022331
 O    0.177446    6.138517    3.518537
 O    1.616885    4.558207    2.876296
 O   -2.731461    2.993471    5.077389
 H    2.213078    3.326110    1.892280
 H    1.891426    2.119598    0.731524
 H    3.382071    2.804141    0.785354
 H    2.262016    1.301212    3.062690
 H    3.941189    1.833939    2.847396
 H    1.668198   -0.628391    2.044252
 H    3.777451   -2.148864    0.628547
 H    2.363857   -3.314466    2.378853
 H    0.953025   -3.055328    1.342407
 H    4.414027   -4.542140    1.290623
 H    0.463828   -4.598495   -0.374559
 H    5.008663   -6.519852   -0.046921
 H    1.059407   -6.597480   -1.709690
 H    3.339772   -7.559646   -1.554267
 H    3.763407   -0.491229   -1.012560
 H    1.778232   -0.857882   -3.142134
 H    3.060612    0.357694   -3.072180
 H   -0.088831    0.287891   -3.329734
 H   -0.492393    2.882023   -2.170922
 H   -2.856527    2.554352   -2.784766
 H   -2.570498    0.842222   -3.084684
 H   -1.116621    1.380567   -4.994011
 H   -3.586748    1.175489   -5.326173
 H   -2.854442    2.291177   -6.481434
 H   -3.747278    2.919909   -5.096484
 H   -0.935013    3.737971   -5.804633
 H   -0.107002    3.525613   -4.265073
 H   -1.696781    4.303459   -4.321177
 H   -0.957860   -0.353987   -0.775588
 H   -2.855795    0.482343    1.219530
 H   -1.845604   -1.344562    2.594820
 H   -0.578226   -1.538935    1.373396
 H   -0.992069   -2.846778   -0.586381
 H   -4.290753   -1.700586    1.899862
 H   -2.499887   -4.317744   -1.895517
 H   -5.785166   -3.150280    0.594098
 H   -4.903717   -4.467806   -1.309445
 H   -2.582846    1.837163    2.983618
 H    0.144486    2.504262    3.823897
 H   -1.306786    4.236793    6.429907
 H   -1.634633    4.709043    2.670540
 H   -0.561760    3.733316    1.645540
 H    1.006137    6.583935    3.740966
