47 
5gub_ligand_ani-2x.xyz
 C    3.066408   -1.007841    0.764232
 C    2.077196    0.042659    0.251466
 C    0.682953   -0.570183    0.025913
 C    0.781279   -1.805681   -0.872544
 C    1.832618   -2.751606   -0.303353
 C    2.106607   -3.960711   -1.184430
 C    1.709241    2.425023    0.676222
 C    1.316024    3.460942    1.701493
 N    2.019225    1.183204    1.139730
 O    4.355169   -0.525255    0.912693
 O   -0.133541    0.389180   -0.638943
 O    1.172920   -1.432570   -2.170868
 O    3.087722   -2.087428   -0.151736
 O    3.071298   -4.796236   -0.588775
 O    1.696128    2.689304   -0.523068
 C   -1.322712    0.737401   -0.002168
 C   -1.902409    1.970376   -0.690287
 C   -3.258167    2.315780   -0.084847
 C   -4.094123    1.078801   -0.022034
 C   -3.525721   -0.126530   -0.014429
 C   -4.356448   -1.362091    0.064753
 O   -1.100411    3.121728   -0.518108
 O   -3.905197    3.310793   -0.842161
 O   -2.195002   -0.377445   -0.111433
 O   -5.564336   -1.347443    0.140569
 O   -3.629603   -2.486398    0.041125
 H    2.768920   -1.366450    1.760711
 H    2.448317    0.405504   -0.711991
 H    0.236073   -0.849961    0.989944
 H   -0.200034   -2.310103   -0.881454
 H    1.502516   -3.110465    0.688175
 H    1.192612   -4.554523   -1.294533
 H    2.414170   -3.614991   -2.181213
 H    1.494604    3.151824    2.735141
 H    0.250362    3.672482    1.562013
 H    1.865841    4.382444    1.495104
 H    2.060933    1.025421    2.136632
 H    4.692259   -0.339853    0.025443
 H    0.638368   -0.657153   -2.395690
 H    3.837993   -4.233144   -0.412532
 H   -1.144335    0.945059    1.066647
 H   -2.036693    1.737485   -1.758527
 H   -3.077253    2.687048    0.940458
 H   -5.171525    1.162079    0.035279
 H   -0.199691    2.939839   -0.843385
 H   -3.284574    4.050299   -0.896737
 H   -4.276079   -3.210414    0.098801
