47 
5gub_ligand_xtb.xyz
 C    3.074473   -0.905334    0.655354
 C    2.078682    0.182013    0.195578
 C    0.650890   -0.390506    0.223632
 C    0.601073   -1.701366   -0.590068
 C    1.699452   -2.659692   -0.113239
 C    1.795830   -3.899327   -1.010148
 C    1.889345    2.595568    0.678939
 C    2.195218    3.636941    1.729856
 N    2.222017    1.337842    1.049599
 O    4.379736   -0.454591    0.629729
 O   -0.201733    0.564474   -0.387599
 O    0.792305   -1.419503   -1.949775
 O    2.975651   -2.042966   -0.148700
 O    2.730358   -4.818040   -0.518324
 O    1.378303    2.855106   -0.392328
 C   -1.460368    0.735211    0.162317
 C   -2.074351    1.956628   -0.541761
 C   -3.548005    2.104206   -0.129426
 C   -4.224462    0.780779   -0.293213
 C   -3.534046   -0.360679   -0.251150
 C   -4.201016   -1.674131   -0.448485
 O   -1.403759    3.130127   -0.190499
 O   -4.198735    3.072309   -0.904974
 O   -2.195226   -0.461532   -0.015235
 O   -5.386028   -1.812846   -0.603896
 O   -3.341970   -2.695964   -0.440994
 H    2.854736   -1.160127    1.710443
 H    2.293542    0.479675   -0.838098
 H    0.336927   -0.573536    1.259845
 H   -0.381761   -2.173663   -0.433249
 H    1.477698   -2.965273    0.922593
 H    0.831844   -4.409299   -1.032009
 H    2.052988   -3.564972   -2.021760
 H    1.647815    3.418429    2.643866
 H    1.898418    4.614226    1.361194
 H    3.259925    3.642766    1.951738
 H    2.690003    1.192133    1.930836
 H    4.680716   -0.458224   -0.288254
 H    0.282624   -0.619198   -2.143426
 H    3.568416   -4.350942   -0.415033
 H   -1.386582    0.934319    1.249935
 H   -2.024704    1.776698   -1.627194
 H   -3.571520    2.404956    0.935099
 H   -5.281810    0.770867   -0.491656
 H   -0.459007    3.052715   -0.425983
 H   -3.644558    3.862887   -0.901189
 H   -3.819444   -3.528965   -0.585585
