46 
5hu0_ligand_ani-2x.xyz
 C   -1.943682    0.048588    0.525827
 C   -2.418573    1.518789    0.437955
 N   -3.612275    1.598449    1.124337
 C   -4.021033    0.353416    1.619016
 N   -2.955706   -0.511230    1.436877
 C   -4.413696    2.796554    1.200002
 C   -0.544852    0.013530    1.152049
 C   -2.000875   -0.677645   -0.824783
 C   -2.259214   -0.021893   -2.026904
 C   -2.317686   -0.732006   -3.223167
 C   -2.111869   -2.108122   -3.236169
 C   -1.840580   -2.772292   -2.041960
 C   -1.788209   -2.060997   -0.849385
 C    0.600272    0.000579    0.360569
 C    1.873790    0.014448    0.936583
 C    2.008664    0.058665    2.322851
 C    0.861045    0.090117    3.110095
 C   -0.404290    0.075325    2.538721
 N   -5.127354    0.019905    2.145351
 O   -1.873520    2.445753   -0.117517
 N    2.977799   -0.019668    0.061981
 C    4.310281   -0.008296    0.371934
 O    4.785275    0.033951    1.497292
 C    5.202161   -0.052554   -0.803570
 O    4.642854   -0.099224   -2.052692
 C    5.673265   -0.132394   -2.932055
 C    6.863572   -0.108318   -2.282014
 C    6.556425   -0.056016   -0.888087
 H   -3.209131   -1.480308    1.316742
 H   -5.336370    2.696920    0.615576
 H   -4.669726    3.020313    2.240899
 H   -3.817662    3.611983    0.790116
 H   -2.406346    1.054433   -2.029082
 H   -2.523656   -0.202884   -4.150310
 H   -2.158038   -2.660132   -4.171120
 H   -1.677545   -3.847259   -2.038260
 H   -1.560275   -2.582381    0.079463
 H    0.493378   -0.045275   -0.720108
 H    2.994829    0.069925    2.769272
 H    0.965235    0.127888    4.191734
 H   -1.294215    0.095202    3.159641
 H   -5.762499    0.812952    2.196440
 H    2.752935   -0.056725   -0.923933
 H    5.409336   -0.171560   -3.979130
 H    7.843640   -0.125622   -2.737906
 H    7.234517   -0.024585   -0.044872
