28 
5i24_ligand_aiqm1.xyz
 C    0.426899   -0.954297    0.964841
 C    1.229565   -0.009258    0.060743
 C    0.389107    1.192208   -0.396526
 C   -0.930078    0.758680   -1.018769
 C   -1.772345   -0.103568   -0.090221
 C   -0.967343   -1.313918    0.424610
 C    1.841303   -0.726872   -1.142003
 O    2.570177    0.257084   -1.863969
 O    0.319055   -0.278028    2.222549
 O   -0.763393   -2.226076   -0.640281
 O   -2.208085    0.727892    0.994414
 N    0.105830    2.097839    0.828366
 H    0.980827   -1.884592    1.086719
 H    2.065670    0.369468    0.651761
 H    0.956851    1.792822   -1.099095
 H   -0.699794    0.173774   -1.903091
 H   -1.508423    1.620522   -1.349795
 H   -2.629694   -0.482328   -0.640139
 H   -1.528313   -1.772904    1.240947
 H    2.500148   -1.509715   -0.770871
 H    1.073998   -1.184231   -1.767789
 H    3.098372   -0.177726   -2.531429
 H   -0.063961   -0.875346    2.865902
 H   -1.529941   -2.792396   -0.729302
 H   -3.066981    0.429158    1.286283
 H   -0.149155    1.498925    1.629719
 H   -0.672673    2.726622    0.634425
 H    0.932376    2.646262    1.052303
