28 
5i24_ligand_ani-2x.xyz
 C    0.415761   -0.928320    0.991960
 C    1.252629   -0.016435    0.076774
 C    0.423032    1.215623   -0.365879
 C   -0.872034    0.771134   -1.069093
 C   -1.754356   -0.076756   -0.151619
 C   -0.978171   -1.274870    0.433057
 C    1.864594   -0.763214   -1.102182
 O    2.608044    0.171965   -1.865139
 O    0.301401   -0.243563    2.247413
 O   -0.761238   -2.242735   -0.577551
 O   -2.251363    0.773365    0.883120
 N    0.076157    2.054364    0.844189
 H    0.954792   -1.875026    1.143247
 H    2.089086    0.359684    0.678975
 H    1.021928    1.814436   -1.050418
 H   -0.621788    0.197310   -1.965308
 H   -1.433912    1.651700   -1.397790
 H   -2.610636   -0.467122   -0.727470
 H   -1.574596   -1.726491    1.251736
 H    2.517271   -1.560988   -0.711134
 H    1.085795   -1.244322   -1.707382
 H    2.927854   -0.274902   -2.657225
 H   -0.365920   -0.692205    2.781706
 H   -1.613953   -2.461648   -0.975302
 H   -2.620104    0.222288    1.585306
 H    0.386847    1.520889    1.682913
 H   -0.961555    2.096299    0.898980
 H    0.494437    2.999540    0.824413
