28 
5i24_ligand_xtb.xyz
 C    0.407319   -0.907967    0.990761
 C    1.227825    0.003196    0.068047
 C    0.388533    1.193261   -0.408035
 C   -0.928569    0.761632   -1.037104
 C   -1.772334   -0.081784   -0.079130
 C   -0.963762   -1.311796    0.404408
 C    1.857533   -0.732028   -1.121828
 O    2.562257    0.235275   -1.867631
 O    0.245256   -0.195614    2.210232
 O   -0.723360   -2.207076   -0.646332
 O   -2.178294    0.737069    1.003579
 N    0.098932    2.044658    0.787734
 H    0.970272   -1.834030    1.159749
 H    2.058909    0.395051    0.664649
 H    0.974066    1.763558   -1.133876
 H   -0.716753    0.167996   -1.924336
 H   -1.505024    1.635235   -1.344441
 H   -2.651979   -0.448064   -0.626747
 H   -1.533589   -1.802293    1.213107
 H    2.532320   -1.506567   -0.739742
 H    1.087425   -1.218994   -1.728788
 H    3.086072   -0.203504   -2.545436
 H   -0.116630   -0.773480    2.890916
 H   -1.534090   -2.667626   -0.891307
 H   -2.928225    0.339885    1.456809
 H   -0.136730    1.367417    1.559234
 H   -0.716808    2.642093    0.624283
 H    0.909430    2.604495    1.061526
