62 
5i3v_ligand_aiqm1.xyz
 C   -7.549389    0.484027   -0.632647
 C   -6.789610   -0.170520    0.524967
 C   -7.144657   -1.659506    0.563773
 C   -7.217956    0.471953    1.848227
 C   -5.273168   -0.059704    0.317918
 C   -4.701863    1.358749    0.278224
 N   -3.265492    1.356896    0.041200
 C   -2.758940    1.233743   -1.210108
 O   -3.455814    1.193940   -2.212194
 C   -1.242599    1.132187   -1.243453
 C   -0.664230    1.711542   -2.524708
 C   -0.828845   -0.351658   -1.048128
 C    0.433704   -0.440757   -0.234135
 C    0.398735   -0.186155    1.179504
 N    1.456201   -0.121306    1.948870
 N   -0.839756    0.077957    1.789010
 C    1.665904   -0.654113   -0.788352
 C    2.842267   -0.602739    0.006895
 C    4.136979   -0.809860   -0.518230
 C    2.681466   -0.316419    1.383115
 C    3.830494   -0.249848    2.203202
 C    5.080930   -0.444599    1.670625
 C    5.255481   -0.719175    0.284908
 C    6.603335   -0.950761   -0.305454
 N    6.686254   -2.012317   -1.123436
 C    7.865428   -2.301963   -1.679087
 C    9.012446   -1.547224   -1.470740
 C    8.911607   -0.426166   -0.656491
 C    7.698293   -0.101213   -0.051102
 C    7.604410    1.142249    0.795031
 H   -7.220019    0.076189   -1.589948
 H   -7.405200    1.565597   -0.656291
 H   -8.621103    0.294944   -0.530796
 H   -6.633210   -2.158850    1.390999
 H   -8.220464   -1.796541    0.694248
 H   -6.847509   -2.148772   -0.366246
 H   -8.281969    0.295372    2.022205
 H   -7.057934    1.552228    1.847103
 H   -6.662526    0.044527    2.687770
 H   -5.010026   -0.556827   -0.622838
 H   -4.770118   -0.616430    1.123903
 H   -4.892423    1.884338    1.215462
 H   -5.156747    1.930743   -0.528114
 H   -2.623430    1.261630    0.816157
 H   -0.864804    1.692247   -0.385348
 H   -1.091820    1.204332   -3.390282
 H    0.420964    1.586495   -2.543574
 H   -0.894711    2.773963   -2.614864
 H   -0.691976   -0.808590   -2.028805
 H   -1.634670   -0.908548   -0.558673
 H   -0.729219    0.126266    2.792102
 H   -1.553787   -0.591440    1.536453
 H    1.756110   -0.847760   -1.852422
 H    4.246945   -1.052461   -1.569000
 H    3.692348   -0.049362    3.258033
 H    5.947744   -0.409649    2.318852
 H    7.883613   -3.173213   -2.322407
 H    9.947119   -1.821018   -1.941391
 H    9.772424    0.211657   -0.492808
 H    7.761018    0.924898    1.854060
 H    6.632103    1.620179    0.699680
 H    8.371954    1.856715    0.494274
