42 
5i86_ligand_aiqm1.xyz
 C    0.039833   -1.851437    0.779413
 C   -0.766174   -2.684677    1.533251
 C   -2.131865   -2.440097    1.573775
 C   -2.722432   -1.400538    0.859092
 N   -4.129653   -1.319962    0.982090
 C   -5.041761   -0.293890    0.877666
 O   -6.165653   -0.456049    1.318478
 C   -4.627707    0.964695    0.165284
 C   -3.770109    0.696700   -1.073969
 C   -3.804105    1.878481   -2.030582
 N   -2.394414    0.491432   -0.682731
 C   -1.911586   -0.570431    0.044269
 C   -0.511260   -0.791973    0.053842
 C    0.405256    0.079525   -0.750097
 O    0.054340    0.696455   -1.755663
 N    1.687977    0.144575   -0.314624
 C    2.638230    1.032854   -0.975185
 C    3.993791    0.885958   -0.343755
 C    4.395401    1.739620    0.685747
 C    5.627026    1.566176    1.312238
 C    6.472407    0.533383    0.914821
 C    6.082417   -0.319903   -0.114943
 C    4.850852   -0.143650   -0.739126
 H    1.103671   -2.045048    0.720091
 H   -0.347327   -3.513259    2.084073
 H   -2.774517   -3.079197    2.171239
 H   -4.538171   -2.090889    1.486713
 H   -5.550628    1.476417   -0.100866
 H   -4.067178    1.604460    0.852922
 H   -4.169982   -0.187566   -1.594847
 H   -3.441531    2.775861   -1.525370
 H   -3.169757    1.686295   -2.896274
 H   -4.820312    2.062247   -2.380948
 H   -1.715304    0.837384   -1.347661
 H    1.903459   -0.168760    0.614850
 H    2.661124    0.778331   -2.033959
 H    2.286563    2.066770   -0.911802
 H    3.737197    2.542281    0.997488
 H    5.923924    2.235359    2.109191
 H    7.428311    0.396002    1.401661
 H    6.735397   -1.122920   -0.431155
 H    4.544050   -0.812416   -1.534335
