73 
5ien_ligand_xtb.xyz
 O   -7.242686   -2.229687   -1.371116
 O    7.304538    0.459978   -1.102218
 C   -6.162004   -2.266868    1.463323
 C   -7.613485   -2.033035    1.039804
 C   -7.696491   -1.377274   -0.345340
 C   -6.915490   -0.053944   -0.333080
 C   -5.488513   -0.297798    0.076650
 C   -4.456525    0.068941   -0.699600
 C   -3.072327   -0.211414   -0.415269
 C   -2.006685    0.267509   -1.068055
 C   -2.042678    1.242276   -2.211586
 C   -5.351156   -1.002428    1.361145
 C   -1.235694    2.502323   -1.876924
 C    0.186791    2.177610   -1.417329
 C    0.180870    1.190052   -0.247161
 C   -0.591961   -0.070189   -0.714568
 C   -0.282741   -1.098718    0.365785
 C    1.178071   -0.798229    0.743689
 C    1.551999    0.560505    0.101306
 C   -0.482412    1.810911    0.983747
 C   -4.598260   -0.551775    2.356249
 C    2.513334    1.366442    0.989412
 C    2.908969    2.706358    0.367511
 C    3.780335    0.560003    1.331775
 C    4.643280    0.166749    0.134729
 C    5.897694   -0.580421    0.585085
 C    6.927126   -0.789625   -0.543955
 C    6.346015   -1.610041   -1.695372
 C    8.162005   -1.499558    0.028366
 H   -6.283649   -2.304930   -1.291088
 H    7.700910    0.997061   -0.407380
 H   -6.130195   -2.652968    2.483695
 H   -5.715938   -3.024645    0.809660
 H   -8.147591   -2.984814    1.017622
 H   -8.106032   -1.380155    1.762870
 H   -8.747599   -1.184135   -0.589813
 H   -7.392796    0.623999    0.379909
 H   -6.956341    0.402647   -1.323877
 H   -4.680139    0.585920   -1.623575
 H   -2.910239   -0.892067    0.408909
 H   -3.061460    1.529723   -2.466819
 H   -1.598443    0.763911   -3.090725
 H   -1.189706    3.143012   -2.760835
 H   -1.754251    3.059967   -1.095528
 H    0.682416    3.108551   -1.144304
 H    0.741469    1.739524   -2.251624
 H   -0.102777   -0.408688   -1.637996
 H   -0.413813   -2.118294    0.004371
 H   -0.933997   -0.962312    1.227794
 H    1.281954   -0.746987    1.827645
 H    1.843208   -1.584290    0.387531
 H    2.060336    0.373200   -0.849841
 H   -1.556433    1.895136    0.837426
 H   -0.082106    2.804039    1.174126
 H   -0.314256    1.201448    1.866264
 H   -4.039314    0.364449    2.271979
 H   -4.525553   -1.077484    3.294197
 H    2.012827    1.571815    1.942026
 H    3.185024    2.586722   -0.676635
 H    2.094318    3.421767    0.428657
 H    3.757993    3.128812    0.901442
 H    4.383950    1.165238    2.014475
 H    3.502254   -0.346510    1.872245
 H    4.948134    1.055339   -0.418881
 H    4.069944   -0.472129   -0.535643
 H    6.380503   -0.008150    1.384227
 H    5.623514   -1.552606    0.998609
 H    5.579832   -1.035707   -2.206326
 H    7.130465   -1.838278   -2.411748
 H    5.919530   -2.537387   -1.324384
 H    8.572370   -0.940123    0.868105
 H    7.901369   -2.496658    0.372000
 H    8.928188   -1.581713   -0.739066
