54 
5ier_ligand_aiqm1.xyz
 C   -5.423938   -0.598211   -0.004784
 C    2.436510   -1.939851   -0.419951
 C   -2.223286   -1.437400    0.100597
 O   -4.689037    0.835522   -1.748206
 O    6.410766    1.012324   -0.751425
 O   -3.012780    2.234185   -0.304737
 C    4.541280    0.546375    0.603731
 C    2.601246    0.054428    2.068377
 C    4.624657   -0.171685   -1.817775
 C    1.221108    0.694277    2.046066
 C    0.103333   -0.346097   -1.534495
 C   -1.888897    0.757348    2.176536
 C    3.117472    0.058331   -1.795924
 C   -1.306765    0.257716   -1.520010
 C   -3.345493    0.899430    1.654097
 C   -4.478879    0.394717   -0.633428
 C    5.298377    0.529598   -0.659409
 C    3.270183    0.112687    0.715711
 C    0.349709    0.062628    0.963498
 C    1.013384    0.207648   -0.420815
 C   -1.030757    0.700314    0.901818
 C    2.448815   -0.392918   -0.479454
 C   -1.947879    0.059283   -0.149772
 C   -3.238116    0.895507    0.115333
 H   -6.131324   -0.949621   -0.752726
 H   -4.892336   -1.442993    0.427287
 H   -5.971883   -0.116349    0.806588
 H    1.979904   -2.361745   -1.317191
 H    3.453423   -2.332314   -0.354343
 H    1.884695   -2.313757    0.445997
 H   -2.753843   -1.614311    1.038094
 H   -2.832241   -1.847487   -0.710533
 H   -1.311769   -2.030152    0.134618
 H   -3.408131    2.304812   -1.183768
 H    5.077012    0.918230    1.470927
 H    2.509258   -0.996347    2.357513
 H    3.240929    0.528059    2.812457
 H    5.077803    0.177042   -2.744752
 H    4.846219   -1.241746   -1.735830
 H    0.752210    0.591754    3.028342
 H    1.318037    1.766055    1.846346
 H    0.557291   -0.176825   -2.514376
 H    0.027446   -1.432374   -1.420571
 H   -1.775958   -0.156185    2.766215
 H   -1.608378    1.595839    2.811868
 H    2.653127   -0.464658   -2.634231
 H    2.913874    1.124535   -1.941411
 H   -1.251414    1.327393   -1.726645
 H   -1.917168   -0.196579   -2.306110
 H   -3.813128    1.827848    1.978777
 H   -3.961120    0.066889    1.996671
 H    0.245503   -1.007747    1.187833
 H    1.130136    1.287516   -0.595718
 H   -0.889689    1.739159    0.568592
