94 
5iz8_ligand_dft.xyz
 C    9.291515   -0.493520    0.418122
 O    9.778380   -1.117029   -0.514041
 C   10.145734    0.165503    1.483855
 N    7.949663   -0.327320    0.555556
 C    7.020147   -0.875829   -0.402252
 C    5.717405   -0.098692   -0.285658
 O    5.413565    0.472801    0.764883
 C    6.735466   -2.366956   -0.152474
 N    4.933268   -0.107167   -1.383784
 C    3.535644    0.241965   -1.312368
 C    2.686305   -0.997854   -0.992114
 O    3.150976   -2.125292   -1.043745
 N    1.414506   -0.691780   -0.647947
 C    0.483880   -1.655757   -0.104660
 C   -0.728315   -1.944199   -0.994480
 O   -1.355017   -2.994298   -0.831493
 C   -0.040834   -1.181770    1.265203
 C    1.041144   -1.118728    2.350147
 C    2.149795   -0.135278    2.042246
 O    1.980740    1.050375    1.805395
 O    3.346820   -0.699135    2.055127
 N   -1.081946   -0.971578   -1.861361
 C   -2.301703   -0.959883   -2.667547
 C   -3.519081   -0.718816   -1.764185
 O   -4.147784    0.343254   -1.803369
 C   -2.440898   -2.177830   -3.581108
 N   -3.828348   -1.717850   -0.915740
 C   -4.788941   -1.512176    0.150237
 C   -4.302284   -0.364376    1.049265
 O   -3.221610   -0.412523    1.616781
 C   -4.925200   -2.787770    0.984149
 C   -5.335199   -4.041031    0.197000
 C   -6.667669   -3.855531   -0.532298
 C   -5.390815   -5.241892    1.144328
 N   -5.149745    0.694277    1.156422
 C   -4.794358    1.900304    1.890318
 C   -3.521382    2.582759    1.348689
 O   -2.873373    3.332279    2.077389
 C   -4.691650    1.662701    3.395069
 N   -3.242106    2.373604    0.044917
 C   -2.110121    2.954168   -0.667291
 C   -0.772693    2.324950   -0.230440
 O   -0.137124    1.616567   -1.022785
 C   -2.106115    4.485178   -0.589098
 C   -1.133093    5.094014   -1.568050
 O   -0.929165    6.398495   -1.311677
 O   -0.606111    4.517906   -2.488844
 N   -0.354077    2.591450    1.008636
 H   10.696657    0.993925    1.028807
 H    9.570206    0.547694    2.331469
 H   10.878481   -0.560940    1.842486
 H    7.545344    0.190213    1.323338
 H    7.451339   -0.754933   -1.402060
 H    6.004699   -2.759760   -0.865962
 H    7.672165   -2.920355   -0.248132
 H    6.331696   -2.505549    0.854869
 H    5.187734   -0.759842   -2.112365
 H    3.406670    1.001899   -0.536984
 H    3.212027    0.678631   -2.262493
 H    1.134396    0.289404   -0.610184
 H    1.017442   -2.603848    0.000127
 H   -0.829312   -1.863811    1.591911
 H   -0.515955   -0.201781    1.152801
 H    0.571122   -0.795043    3.285485
 H    1.480566   -2.105574    2.514944
 H    4.028126   -0.058936    1.735143
 H   -0.614950   -0.071486   -1.777621
 H   -2.237249   -0.060756   -3.284038
 H   -3.350010   -2.083387   -4.182816
 H   -2.484745   -3.107063   -3.012005
 H   -1.580496   -2.225635   -4.254221
 H   -3.127107   -2.453341   -0.804457
 H   -5.751389   -1.246769   -0.300605
 H   -3.965438   -2.959751    1.486406
 H   -5.665991   -2.598603    1.772931
 H   -4.562025   -4.245815   -0.555037
 H   -6.606106   -3.082520   -1.305670
 H   -6.973081   -4.785498   -1.023153
 H   -7.460954   -3.573509    0.171971
 H   -5.631506   -6.160585    0.599095
 H   -6.160199   -5.097515    1.913375
 H   -4.431402   -5.391810    1.650914
 H   -5.916912    0.740298    0.503527
 H   -5.605012    2.614960    1.704241
 H   -3.896007    0.947465    3.609674
 H   -4.466130    2.602152    3.901713
 H   -5.640146    1.266905    3.768627
 H   -3.759094    1.665407   -0.471354
 H   -2.228518    2.661446   -1.711393
 H   -3.107469    4.854010   -0.841957
 H   -1.893436    4.845093    0.418850
 H   -0.314591    6.718109   -1.991851
 H   -0.997071    3.037574    1.657490
 H    0.472644    2.104663    1.360683
