94 
5iz8_ligand_aiqm1.xyz
 C    2.872738   -4.425464    7.781347
 O    3.657853   -3.776365    8.455357
 C    2.332192   -5.768332    8.218211
 N    2.402946   -3.973693    6.594227
 C    2.774296   -2.680426    6.077318
 C    1.722833   -2.259917    5.063648
 O    0.998518   -3.077104    4.506234
 C    4.157782   -2.698143    5.416497
 N    1.648528   -0.933446    4.820513
 C    0.945202   -0.470266    3.647443
 C    1.826842   -0.537263    2.400645
 O    3.044402   -0.582733    2.455523
 N    1.107919   -0.556898    1.260364
 C    1.681530   -0.610502   -0.059544
 C    1.748687    0.745390   -0.771486
 O    2.380452    0.836097   -1.823435
 C    0.896815   -1.585913   -0.945447
 C    0.992586   -3.038489   -0.460214
 C    0.401141   -3.214182    0.915240
 O   -0.754201   -2.967310    1.197488
 O    1.289267   -3.642653    1.805698
 N    1.070015    1.773043   -0.214656
 C    0.904990    3.098914   -0.810853
 C   -0.054871    3.006968   -2.007991
 O   -1.194020    3.469448   -1.948018
 C    2.224953    3.787791   -1.135976
 N    0.408867    2.365699   -3.097615
 C   -0.497518    2.030500   -4.182493
 C   -1.574140    1.055510   -3.664859
 O   -1.279887    0.013751   -3.097343
 C    0.259099    1.407358   -5.347850
 C    1.353530    2.294382   -5.941016
 C    0.811673    3.646772   -6.396892
 C    2.018917    1.566765   -7.106442
 N   -2.850934    1.467606   -3.855450
 C   -4.009418    0.754256   -3.342018
 C   -4.028666    0.633162   -1.806441
 O   -4.695650   -0.244521   -1.267875
 C   -4.183666   -0.606856   -4.002428
 N   -3.334980    1.563604   -1.117599
 C   -3.190129    1.599461    0.337544
 C   -2.299170    0.469411    0.884692
 O   -1.345801    0.762207    1.613291
 C   -4.539404    1.623217    1.065217
 C   -4.408543    2.140498    2.472729
 O   -5.367014    1.630119    3.271894
 O   -3.592164    2.936026    2.858890
 N   -2.605305   -0.775268    0.536288
 H    1.464493   -5.607623    8.859622
 H    2.031215   -6.385378    7.371334
 H    3.093466   -6.279579    8.800614
 H    1.729948   -4.494976    6.055573
 H    2.786591   -1.959765    6.897279
 H    4.406294   -1.726283    4.986109
 H    4.902444   -2.957035    6.164665
 H    4.176821   -3.445720    4.623097
 H    2.436413   -0.384665    5.122218
 H    0.065905   -1.085265    3.499270
 H    0.614494    0.559257    3.789505
 H    0.109883   -0.441062    1.350807
 H    2.713210   -0.946564    0.039959
 H    1.293462   -1.527465   -1.959658
 H   -0.150256   -1.280125   -0.983384
 H    0.436799   -3.679715   -1.147619
 H    2.031229   -3.363681   -0.445686
 H    0.903402   -3.587223    2.698883
 H    0.487097    1.559875    0.583661
 H    0.371768    3.691652   -0.069803
 H    2.032552    4.798674   -1.495478
 H    2.781272    3.246092   -1.895548
 H    2.837580    3.845310   -0.237769
 H    1.254052    1.817325   -2.978278
 H   -0.986570    2.951948   -4.500973
 H    0.697404    0.463920   -5.009455
 H   -0.466266    1.165558   -6.133560
 H    2.113955    2.471684   -5.175132
 H    0.426121    4.240512   -5.565925
 H    1.599130    4.227780   -6.878325
 H    0.005377    3.514442   -7.125337
 H    2.846374    2.151512   -7.508977
 H    1.299080    1.402112   -7.913450
 H    2.407736    0.596704   -6.796209
 H   -2.995280    2.375983   -4.259824
 H   -4.872785    1.381158   -3.582095
 H   -3.298657   -1.215525   -3.827255
 H   -5.046614   -1.113606   -3.579460
 H   -4.317910   -0.482218   -5.077089
 H   -2.777603    2.235764   -1.627117
 H   -2.666034    2.524815    0.568141
 H   -5.220495    2.301770    0.543239
 H   -5.006340    0.642146    1.069037
 H   -5.234866    2.031544    4.140142
 H   -3.403157   -0.937380   -0.062129
 H   -2.041330   -1.547998    0.862923
