24 
5j32_ligand_xtb.xyz
 C    2.505333   -0.272670    0.368655
 C    1.197738   -0.900974   -0.108419
 C    0.080914    0.146290    0.182970
 C    0.501785    1.407731   -0.539089
 C   -1.297074   -0.321016   -0.321878
 C   -1.742306   -1.597255    0.385026
 C   -2.321520    0.790837   -0.102459
 O    1.254735   -1.271452   -1.445145
 O    3.274733    0.325109   -0.332020
 O    2.675049   -0.422429    1.684844
 O    0.756863    2.416389    0.296053
 O    0.635755    1.498521   -1.731817
 H    1.013282   -1.807877    0.472977
 H    0.047447    0.342819    1.257208
 H   -1.209390   -0.519571   -1.394199
 H   -1.104749   -2.434858    0.118740
 H   -2.758928   -1.843443    0.088978
 H   -1.722010   -1.465456    1.464902
 H   -2.395374    1.038457    0.954687
 H   -2.045792    1.689406   -0.649565
 H   -3.300647    0.470945   -0.449992
 H    1.390031   -0.474496   -1.983121
 H    3.494884    0.009666    1.976012
 H    1.069339    3.195226   -0.193148
