24 
5j32_ligand_ani-2x.xyz
 C    2.556250   -0.437540    0.365061
 C    1.160092   -0.928708   -0.005432
 C    0.110848    0.188359    0.222595
 C    0.584821    1.421573   -0.518507
 C   -1.284584   -0.211643   -0.305876
 C   -1.681446   -1.615017    0.154895
 C   -2.349668    0.808944    0.103811
 O    1.140572   -1.427384   -1.311217
 O    3.533747   -0.464302   -0.336225
 O    2.564480    0.055679    1.617790
 O    0.472315    2.563330    0.173120
 O    1.020702    1.391917   -1.651136
 H    0.925997   -1.766358    0.664084
 H    0.069050    0.414480    1.290999
 H   -1.214316   -0.228283   -1.402279
 H   -1.002764   -2.371181   -0.252888
 H   -2.694256   -1.854243   -0.185434
 H   -1.672306   -1.690870    1.249997
 H   -2.427712    0.864456    1.196796
 H   -2.129978    1.813023   -0.270720
 H   -3.328971    0.512435   -0.285627
 H    1.364416   -0.678914   -1.889731
 H    3.469066    0.371890    1.780773
 H    0.813746    3.268258   -0.404648
