55 
5j7w_ligand_ani-2x.xyz
 N   -5.229609    0.150204   -2.092819
 C   -4.362110    0.354195   -3.068234
 N   -4.867770    0.500354   -4.325144
 N   -3.002934    0.418104   -2.991631
 C   -2.492170    0.259194   -1.799125
 N   -1.126309    0.359702   -1.594107
 C   -3.314727    0.030006   -0.652946
 N   -2.736555   -0.148521    0.548652
 C   -3.547060   -0.374464    1.558766
 C   -4.953312   -0.420482    1.353778
 N   -5.530544   -0.254480    0.187191
 C   -4.699852   -0.022137   -0.863215
 C   -2.945823   -0.538786    2.939361
 N   -1.932314   -1.574878    3.055482
 C   -2.458072   -2.925756    3.105736
 C    1.792258   -0.983346    1.144110
 C    1.297023   -2.267262    1.354508
 C    0.088444   -2.467920    2.004145
 C   -0.682619   -1.384197    2.463880
 C   -0.148248   -0.092071    2.287055
 C    1.037741    0.102420    1.599851
 C    3.085333   -0.831138    0.417718
 O    3.579175   -1.740990   -0.238381
 N    3.682576    0.384433    0.533128
 C    4.868482    0.705459   -0.210719
 C    5.600688    1.796700    0.544234
 O    5.105484    2.473325    1.415754
 O    6.854917    1.966003    0.105690
 C    4.556607    1.181000   -1.645769
 C    3.406729    2.188580   -1.702343
 C    2.047580    1.519090   -1.673764
 O    1.817220    0.436017   -2.169313
 O    1.114766    2.271171   -1.087789
 H   -5.855324    0.684373   -4.403449
 H   -4.247879    0.875905   -5.023895
 H   -0.585168    0.058030   -2.403350
 H   -0.865399   -0.145591   -0.747019
 H   -5.609086   -0.600420    2.205356
 H   -3.750288   -0.769359    3.645050
 H   -2.521333    0.416789    3.261082
 H   -3.427550   -2.909522    3.610650
 H   -1.791699   -3.576045    3.684244
 H   -2.599512   -3.365784    2.106082
 H    1.871188   -3.115297    0.989970
 H   -0.263711   -3.485474    2.134006
 H   -0.665492    0.782242    2.667082
 H    1.350464    1.126247    1.394907
 H    3.403690    1.052294    1.239855
 H    5.504212   -0.182938   -0.270827
 H    7.228712    2.703397    0.616729
 H    5.470301    1.616708   -2.062934
 H    4.289072    0.308401   -2.246958
 H    3.446242    2.741870   -2.649081
 H    3.458691    2.930885   -0.899609
 H    0.255070    1.783558   -1.162931
