36 
5jdc_ligand_aiqm1.xyz
 C   -0.557619    0.131212    1.856870
 C   -2.028139    0.015784    2.167693
 O   -2.465642    0.207704    3.303673
 C   -2.872791   -0.370062    1.057417
 C   -4.261794   -0.568952    1.241768
 O   -4.838382   -0.350087    2.425827
 C   -5.061859   -1.007693    0.188556
 C   -4.470286   -1.250897   -1.045343
 O   -5.195653   -1.688806   -2.106581
 C   -3.107627   -1.051754   -1.272990
 C   -2.324244   -0.610244   -0.222330
 O   -1.000898   -0.444656   -0.456709
 C   -0.350454    0.521792    0.400382
 C    1.094961    0.580371   -0.001670
 C    1.693289    1.826765   -0.216179
 C    3.035197    1.908179   -0.549984
 O    3.616671    3.118492   -0.747180
 C    3.794342    0.735702   -0.685761
 O    5.100082    0.963050   -1.018163
 C    5.920824   -0.179650   -1.193492
 C    3.205415   -0.503353   -0.489308
 C    1.850592   -0.577436   -0.145364
 H   -0.095731    0.842608    2.539825
 H   -0.098998   -0.846106    2.035646
 H   -4.119254   -0.085385    3.043514
 H   -6.120548   -1.155974    0.359864
 H   -6.114513   -1.782654   -1.846941
 H   -2.674078   -1.240765   -2.242810
 H   -0.820438    1.498549    0.222367
 H    1.132340    2.749535   -0.124932
 H    4.538053    2.952310   -0.978796
 H    5.983854   -0.761013   -0.271333
 H    5.542620   -0.813323   -1.998020
 H    6.905062    0.195986   -1.456016
 H    3.777293   -1.413512   -0.603271
 H    1.388253   -1.545819   -0.013826
