36 
5jdc_ligand_ani-2x.xyz
 C   -0.596286    0.337319    1.822965
 C   -2.062274    0.202514    2.132037
 O   -2.520311    0.500699    3.237301
 C   -2.887367   -0.338592    1.059757
 C   -4.274181   -0.543074    1.241444
 O   -4.873688   -0.235830    2.389438
 C   -5.049312   -1.074912    0.209189
 C   -4.442550   -1.412271   -0.998385
 O   -5.149400   -1.935894   -2.030161
 C   -3.074479   -1.230822   -1.207351
 C   -2.317599   -0.690086   -0.180059
 O   -0.985258   -0.545667   -0.389411
 C   -0.370347    0.533050    0.323046
 C    1.090700    0.590211   -0.057470
 C    1.763178    1.814310   -0.000780
 C    3.113330    1.889708   -0.296168
 O    3.764007    3.078286   -0.241325
 C    3.808188    0.719837   -0.655397
 O    5.134151    0.922514   -0.920769
 C    5.903396   -0.204337   -1.291103
 C    3.144749   -0.495642   -0.716663
 C    1.782484   -0.556925   -0.419880
 H   -0.173983    1.156419    2.408730
 H   -0.101802   -0.590577    2.137362
 H   -4.176499    0.111498    3.000198
 H   -6.112633   -1.216807    0.376916
 H   -6.076491   -2.014491   -1.772323
 H   -2.622629   -1.501745   -2.153274
 H   -0.857387    1.466115    0.005563
 H    1.243839    2.730406    0.271033
 H    4.687547    2.901759   -0.480353
 H    5.911566   -0.958342   -0.493985
 H    5.521787   -0.659112   -2.213897
 H    6.918545    0.157331   -1.458219
 H    3.675119   -1.400114   -0.997412
 H    1.261792   -1.506835   -0.484193
