62 
5jf1_ligand_ani-2x.xyz
 C    2.999596    2.754248   -0.465365
 C    2.705158    4.234948   -0.418178
 O    2.825100    4.992085   -1.375305
 N    2.287433    4.698326    0.796110
 O    1.860939    6.019903    0.803213
 C    1.878747    1.990220   -1.182194
 C    0.597894    2.009743   -0.341726
 O    0.592226    2.293238    0.850934
 C    2.265848    0.528264   -1.480581
 C    2.615856   -0.279214   -0.227482
 C    2.546881   -1.789950   -0.451961
 C    2.833058   -2.607590    0.808046
 C    2.499926   -4.089202    0.633409
 N   -0.552277    1.659542   -1.003367
 C   -1.636072    1.037074   -0.259469
 C   -3.008495    1.280269   -0.925741
 C   -3.059855    0.831849   -2.388153
 C   -3.396016    2.753057   -0.797036
 C   -1.312262   -0.469280   -0.124998
 O   -0.734651   -1.043467   -1.056672
 N   -1.653069   -1.112037    1.013652
 C   -1.027239   -2.395604    1.400588
 C   -2.474305   -0.544298    2.090379
 C   -2.661278   -1.716294    3.052602
 C   -1.362020   -2.508161    2.891300
 C   -1.518098   -3.587614    0.567816
 O   -0.798684   -3.749998   -0.629149
 H    3.134210    2.371351    0.550020
 H    3.934459    2.629101   -1.019900
 H    1.638758    4.095399    1.301389
 H    1.998485    6.278388   -0.132831
 H    1.670396    2.496013   -2.134927
 H    1.428659    0.048117   -1.998589
 H    3.111175    0.515954   -2.180929
 H    3.616220    0.003343    0.131072
 H    1.919116   -0.009638    0.579350
 H    3.244333   -2.089480   -1.248009
 H    1.541608   -2.042759   -0.818333
 H    3.886664   -2.486450    1.094873
 H    2.245722   -2.201137    1.645809
 H    2.720242   -4.659729    1.541769
 H    1.436357   -4.223111    0.392874
 H    3.082459   -4.526546   -0.185962
 H   -0.399650    1.234267   -1.909156
 H   -1.643812    1.506846    0.728086
 H   -3.743161    0.678821   -0.368916
 H   -4.083190    0.918953   -2.769990
 H   -2.736466   -0.206156   -2.511032
 H   -2.423777    1.463400   -3.019904
 H   -2.664009    3.387167   -1.308564
 H   -4.378098    2.934798   -1.246928
 H   -3.444280    3.067959    0.251800
 H    0.056634   -2.329872    1.237527
 H   -1.949937    0.289866    2.580049
 H   -3.424738   -0.164399    1.700555
 H   -3.520109   -2.321929    2.742924
 H   -2.834296   -1.386233    4.080430
 H   -1.452067   -3.551522    3.210400
 H   -0.562018   -2.050401    3.484497
 H   -2.599119   -3.486752    0.375614
 H   -1.369966   -4.510105    1.145382
 H   -0.750845   -2.863480   -1.039019
