93 
5jop_ligand_xtb.xyz
 C    2.988343    0.246950    0.514374
 C    4.324600    0.988651    0.412138
 C    4.057379    2.490119    0.565475
 C    3.057803    2.930726   -0.513384
 C    1.799728    2.058120   -0.428013
 C    0.803774    2.353782   -1.557282
 O    3.242500   -1.112628    0.349557
 O    5.227121    0.585027    1.410985
 O    5.244397    3.228349    0.384255
 O    3.637248    2.821480   -1.789393
 O    2.115764    0.676419   -0.506397
 O   -0.070444    3.405071   -1.251443
 C    1.023520   -3.796218   -0.999182
 C    1.779796   -2.453076   -1.048905
 C    2.083852   -1.939733    0.369726
 C    2.303193   -3.122104    1.320650
 C    2.653787   -2.640829    2.734685
 C    0.268918   -3.924419    0.329861
 O   -0.660440   -2.876473    0.342057
 O    1.871209   -4.907973   -1.115713
 O    1.014912   -1.542982   -1.792097
 O    1.112657   -3.894029    1.443827
 O    1.698232   -1.738579    3.221063
 C   -1.121993   -0.212475    3.604599
 C   -0.854160    0.919550    2.581102
 C   -1.944765    0.876377    1.504462
 C   -1.916761   -0.515842    0.855875
 C   -2.005053   -1.632074    1.912588
 C   -1.747171   -2.990874    1.246237
 C    0.370037    2.923051    3.273954
 C    0.243335    4.214357    4.044863
 N   -0.773032    2.199479    3.230587
 O   -0.234182   -0.206429    4.649468
 O   -1.723204    1.888122    0.553932
 O   -3.012045   -0.678172   -0.028388
 O   -1.058397   -1.461968    2.943577
 O    1.394165    2.560428    2.729661
 C   -2.706290   -0.708807   -1.376603
 C   -3.826260   -1.431717   -2.127294
 C   -3.536776   -1.362889   -3.636501
 C   -3.396900    0.097696   -4.080477
 C   -2.367813    0.823132   -3.190263
 C   -2.413873    2.343214   -3.414055
 O   -3.878990   -2.767583   -1.703808
 O   -4.548624   -2.021931   -4.351166
 O   -4.683721    0.668364   -4.022017
 O   -2.615264    0.641698   -1.810186
 O   -2.543577    2.612188   -4.796877
 H    2.529928    0.448080    1.502830
 H    4.741348    0.791988   -0.588618
 H    3.630562    2.673073    1.561080
 H    2.763021    3.973651   -0.321908
 H    1.326929    2.262043    0.544040
 H    1.352691    2.644165   -2.454685
 H    0.248003    1.427547   -1.758871
 H    5.230583   -0.378667    1.426193
 H    5.909169    2.832383    0.960320
 H    4.527106    3.192007   -1.708814
 H   -0.571272    3.156196   -0.458832
 H    0.271540   -3.777178   -1.800309
 H    2.754815   -2.621932   -1.541415
 H    1.223676   -1.365375    0.729877
 H    3.112029   -3.757484    0.933301
 H    3.611805   -2.118176    2.723959
 H    2.724453   -3.520480    3.387859
 H   -0.236847   -4.900184    0.376832
 H    2.300732   -4.882431   -1.978840
 H    1.379241   -0.656847   -1.619125
 H    0.821539   -2.129928    3.061420
 H   -2.126087   -0.075246    4.044567
 H    0.125983    0.749635    2.120669
 H   -2.932414    1.025297    1.974806
 H   -0.973470   -0.623760    0.308172
 H   -3.021614   -1.626785    2.334791
 H   -2.640661   -3.279578    0.681075
 H   -1.526394   -3.728238    2.022326
 H   -0.001245    4.000333    5.082760
 H   -0.543399    4.830339    3.615849
 H    1.185765    4.751832    4.002258
 H   -1.592935    2.531851    3.711869
 H    0.642150   -0.479340    4.327074
 H   -2.170841    1.617987   -0.270042
 H   -1.748696   -1.229945   -1.561403
 H   -4.774573   -0.916236   -1.910107
 H   -2.606918   -1.907191   -3.837437
 H   -3.023109    0.128878   -5.113844
 H   -1.374882    0.420997   -3.444809
 H   -1.514515    2.798002   -2.993414
 H   -3.283245    2.733041   -2.865247
 H   -4.325345   -3.261984   -2.407033
 H   -5.291916   -1.404678   -4.412542
 H   -4.621407    1.552523   -4.401037
 H   -2.187912    3.487771   -4.975508
