93 
5jop_ligand_ani-2x.xyz
 C    2.892238    0.200578    0.577165
 C    4.170431    1.022441    0.530272
 C    3.829397    2.498309    0.697128
 C    2.827503    2.922386   -0.378674
 C    1.630963    1.965041   -0.357481
 C    0.635698    2.241107   -1.474220
 O    3.190888   -1.159086    0.423882
 O    5.071340    0.681623    1.565432
 O    4.989900    3.289813    0.516410
 O    3.448770    2.843652   -1.641822
 O    2.064092    0.614162   -0.495917
 O   -0.064892    3.445561   -1.229177
 C    1.004298   -3.902876   -0.837841
 C    1.730009   -2.551808   -0.917211
 C    2.042717   -1.994736    0.487203
 C    2.255652   -3.141275    1.466505
 C    2.619816   -2.680427    2.867467
 C    0.206547   -3.992703    0.464802
 O   -0.748443   -2.972959    0.383554
 O    1.911262   -4.995208   -0.821113
 O    0.933625   -1.643251   -1.647252
 O    1.014678   -3.861250    1.610789
 O    1.607772   -1.854936    3.399194
 C   -1.160233   -0.142312    3.552949
 C   -0.914088    0.950142    2.500239
 C   -1.974570    0.892636    1.405278
 C   -1.887389   -0.503383    0.766175
 C   -2.052853   -1.585871    1.841739
 C   -1.854598   -2.988133    1.275541
 C    0.462207    2.769361    3.374222
 C    0.441237    4.132492    4.029326
 N   -0.764893    2.251701    3.086677
 O   -0.229536   -0.093155    4.567900
 O   -1.728168    1.906153    0.453553
 O   -2.904478   -0.694196   -0.196606
 O   -1.095599   -1.399461    2.887518
 O    1.499287    2.171896    3.102830
 C   -2.496894   -0.649757   -1.533067
 C   -3.517102   -1.411010   -2.360050
 C   -3.211730   -1.275637   -3.848805
 C   -3.134546    0.187345   -4.252475
 C   -2.212852    0.973922   -3.314547
 C   -2.402919    2.470065   -3.493150
 O   -3.477088   -2.771468   -1.987618
 O   -4.180387   -1.973763   -4.603411
 O   -4.463152    0.690504   -4.206694
 O   -2.463567    0.718055   -1.931137
 O   -2.494570    2.721782   -4.892631
 H    2.361485    0.366249    1.533352
 H    4.626003    0.883959   -0.460839
 H    3.387254    2.655421    1.696028
 H    2.469562    3.947310   -0.178601
 H    1.124428    2.073529    0.613134
 H    1.166006    2.353416   -2.425886
 H   -0.066793    1.397319   -1.577515
 H    5.298513   -0.248477    1.435114
 H    5.694198    2.861208    1.025179
 H    4.312483    3.268584   -1.528325
 H   -0.651717    3.245388   -0.479597
 H    0.310698   -3.976411   -1.684931
 H    2.698482   -2.715215   -1.419705
 H    1.173697   -1.419164    0.824039
 H    3.033656   -3.819598    1.090197
 H    3.554820   -2.108520    2.838173
 H    2.780313   -3.569037    3.495199
 H   -0.290860   -4.968843    0.545908
 H    2.298729   -5.073453   -1.701136
 H    1.319857   -0.758271   -1.506630
 H    0.751301   -2.292972    3.248339
 H   -2.146296   -0.027984    4.022466
 H    0.059447    0.708789    2.059268
 H   -2.979991    1.023101    1.841205
 H   -0.894102   -0.592833    0.304752
 H   -3.065823   -1.511378    2.267206
 H   -2.742408   -3.290336    0.705169
 H   -1.693103   -3.695678    2.099741
 H    1.454598    4.392717    4.335436
 H   -0.212810    4.138864    4.906678
 H    0.079963    4.890090    3.325445
 H   -1.585085    2.813542    3.252713
 H    0.622641   -0.397591    4.206592
 H   -2.190786    1.655372   -0.371819
 H   -1.488827   -1.082593   -1.652120
 H   -4.504686   -0.969819   -2.159631
 H   -2.250070   -1.765383   -4.051912
 H   -2.739506    0.259603   -5.272691
 H   -1.175228    0.688630   -3.552187
 H   -1.570822    3.017941   -3.027100
 H   -3.337734    2.753344   -2.991307
 H   -4.006378   -3.228914   -2.656669
 H   -4.950072   -1.384399   -4.649747
 H   -4.452035    1.512870   -4.717689
 H   -2.628878    3.668057   -5.017944
