33 
5jqb_ligand_aiqm1.xyz
 C    3.829804    0.993072    0.212529
 C   -2.410613   -0.743353    0.590345
 C   -3.183731    0.370832   -0.126613
 C   -2.739945    1.753634    0.342309
 C   -4.684779    0.192043    0.082720
 C    3.374621   -0.382782   -0.225029
 C    4.154271   -1.472783    0.511572
 C    1.874568   -0.470914   -0.000771
 C    1.021917   -0.751603   -1.065992
 C   -0.354114   -0.850267   -0.875375
 C   -0.920149   -0.670735    0.390434
 C   -0.058142   -0.382874    1.452195
 C    1.318380   -0.281521    1.265675
 O    3.572178    1.922470   -0.731987
 O    4.328725    1.265702    1.272915
 H   -2.781187   -1.710707    0.233970
 H   -2.632717   -0.692439    1.661856
 H   -2.975977    0.288526   -1.199512
 H   -2.939746    1.872117    1.411378
 H   -3.286384    2.536361   -0.188269
 H   -1.672414    1.909676    0.178066
 H   -5.246465    0.952325   -0.461648
 H   -5.022479   -0.789088   -0.256636
 H   -4.931069    0.287673    1.143856
 H    3.558440   -0.453567   -1.298814
 H    3.975168   -1.418426    1.583522
 H    3.839812   -2.455296    0.160304
 H    5.227045   -1.362233    0.345905
 H    1.434016   -0.890395   -2.059300
 H   -0.991697   -1.065743   -1.725840
 H   -0.471034   -0.229032    2.443381
 H    1.960519   -0.044959    2.106223
 H    3.833478    2.774187   -0.359769
