67 
5jr6_ligand_xtb.xyz
 C    1.025961   -2.379846    0.546096
 C    1.002877   -3.233816   -0.744270
 N    1.924459   -1.236466    0.266737
 O    2.322808   -3.574043   -1.055999
 C    0.454551   -2.374329   -1.904867
 C    1.563360   -3.162536    1.746534
 C    1.690463   -2.257670    2.944442
 C    0.576533   -1.963915    3.721252
 C    0.681089   -1.113590    4.806735
 C    1.903484   -0.542391    5.126254
 C    3.018937   -0.826921    4.356013
 C    2.910280   -1.675780    3.268098
 O    1.246890   -2.017720   -2.763416
 N   -0.828495   -2.005303   -1.883396
 C   -1.257672   -0.871383   -2.695637
 C   -0.476318    0.356664   -2.203371
 O    0.353931    0.224757   -1.291942
 C   -2.777611   -0.797192   -2.473953
 C   -3.135132   -2.169723   -1.900749
 C   -1.907833   -2.511103   -1.062794
 N   -0.700287    1.538241   -2.751273
 C    0.079086    2.707978   -2.330577
 C   -0.418429    3.217241   -0.952498
 O   -1.228118    4.108421   -0.838274
 C   -0.167405    3.734527   -3.431856
 C   -1.564792    3.375400   -3.927689
 C   -1.571179    1.849957   -3.873493
 N    0.168162    2.579035    0.074734
 C   -0.141897    2.797002    1.469698
 C    0.764051    1.877937    2.286563
 O    1.334629    0.921270    1.779919
 C   -1.606871    2.460174    1.784332
 N    0.851422    2.159251    3.586866
 H    0.036463   -1.979646    0.772259
 H    0.403258   -4.139297   -0.590536
 H    2.825977   -1.613040   -0.049087
 H    1.482163   -0.648631   -0.483160
 H    2.017132   -0.621772    1.097505
 H    2.486690   -3.240676   -1.962064
 H    2.528910   -3.594949    1.481072
 H    0.878023   -3.981049    1.967321
 H   -0.375069   -2.417894    3.485372
 H   -0.188633   -0.903060    5.410601
 H    1.991926    0.098048    5.992326
 H    3.975323   -0.393394    4.605313
 H    3.790383   -1.908940    2.685931
 H   -0.993781   -1.048157   -3.744464
 H   -3.014561   -0.015976   -1.749475
 H   -3.319708   -0.602887   -3.395589
 H   -3.247452   -2.895595   -2.705642
 H   -4.050182   -2.151071   -1.314538
 H   -1.953256   -1.986614   -0.100304
 H   -1.796293   -3.579766   -0.884346
 H    1.131537    2.422664   -2.237580
 H   -0.123746    4.747779   -3.040492
 H    0.569993    3.621815   -4.226248
 H   -1.767667    3.751665   -4.926624
 H   -2.305206    3.778888   -3.237889
 H   -2.572759    1.452786   -3.721248
 H   -1.150520    1.418932   -4.788755
 H    0.701410    1.734372   -0.109538
 H    0.048151    3.847035    1.720461
 H   -1.808835    1.416948    1.549928
 H   -2.248385    3.092700    1.176725
 H   -1.830573    2.636834    2.832239
 H    1.387259    1.545505    4.186585
 H    0.400498    2.962016    3.990024
