52 
5jy0_ligand_ani-2x.xyz
 N   -0.656658    2.167569    0.735160
 C   -2.039024    1.572926    0.585196
 C   -1.838493    0.116027    1.030271
 O   -1.733357   -0.134123    2.215899
 C   -2.570365    1.794618   -0.826198
 C   -3.912508    1.128333   -1.151795
 C   -5.049296    1.656303   -0.274206
 C   -4.241247    1.332391   -2.631675
 N   -1.630318   -0.851856    0.054113
 C   -0.478107   -1.712308    0.294142
 C    0.794819   -0.840556    0.148390
 O    0.797052    0.144393   -0.591796
 C   -0.488211   -2.919389   -0.641632
 C    0.445430   -4.019446   -0.197207
 O    0.453383   -5.047598   -1.058668
 O    1.110722   -4.023850    0.818021
 N    1.839048   -1.212028    0.913648
 C    2.980972   -0.370919    1.228378
 C    2.547207    0.726084    2.198030
 O    3.497832    1.021740    3.095528
 C    3.703880    0.216646   -0.009401
 C    3.987608   -0.883212   -1.030428
 C    4.996798    0.922055    0.405306
 O    1.474248    1.287698    2.179169
 H   -0.030014    1.759411    0.007581
 H   -0.652604    3.202447    0.672918
 H   -0.257399    1.872268    1.647814
 H   -2.683865    2.028675    1.338168
 H   -2.673059    2.876868   -0.979312
 H   -1.802187    1.458815   -1.539781
 H   -3.815264    0.050572   -0.968265
 H   -5.999446    1.186409   -0.551033
 H   -5.163195    2.740671   -0.401227
 H   -4.880931    1.455745    0.789266
 H   -4.339626    2.401329   -2.860240
 H   -5.186000    0.845271   -2.897457
 H   -3.456679    0.921489   -3.276917
 H   -1.648231   -0.487337   -0.892186
 H   -0.548912   -2.064208    1.328115
 H   -0.244454   -2.645948   -1.675786
 H   -1.502086   -3.334947   -0.657844
 H    1.060349   -5.712173   -0.690927
 H    1.768043   -2.114865    1.366030
 H    3.693291   -1.005066    1.765038
 H    3.145922    1.734945    3.655149
 H    3.034103    0.946140   -0.476546
 H    4.590377   -1.691919   -0.596304
 H    4.545284   -0.473722   -1.879933
 H    3.059379   -1.313969   -1.417364
 H    5.655314    0.235347    0.951079
 H    5.537867    1.270008   -0.480958
 H    4.802508    1.786243    1.045577
