63 
5k0i_ligand_aiqm1.xyz
 O    2.058948    2.608793   -0.871345
 C   -3.340572    2.249514   -3.675907
 O    3.869202    4.315069    0.315851
 C   -3.057253    1.451796   -4.810937
 C   -2.360016    0.589760   -2.223084
 N   -1.005307   -1.258666    0.503709
 C   -2.436252    0.239433   -4.654353
 C   -1.099314   -1.833280   -1.869541
 C   -1.434415   -1.447003   -3.136985
 C   -2.078692   -0.206535   -3.360506
 O    2.823031   -1.041327    2.852413
 C    1.768694   -0.948514    2.237332
 N    1.679147   -0.440406    0.993934
 C    2.843716    0.079387    0.277994
 C    2.504320    0.242752   -1.199253
 C    1.540731    1.405014   -1.420465
 C    2.256288    2.509738    0.538433
 C    2.687921    3.895340    0.974188
 C    3.277554    1.425615    0.859307
 C    0.449455   -1.422383    2.854149
 C   -0.021815   -2.767912    2.257001
 C    1.121700   -3.785995    2.269363
 C   -1.159812   -3.340446    3.116043
 C   -0.475152   -2.590067    0.792876
 C   -0.667036   -0.355490    2.786866
 C   -1.649471   -0.571116    1.619461
 C   -1.417196   -0.952180   -0.782544
 C   -3.012002    1.849103   -2.402269
 C   -3.321808    2.703747   -1.205242
 N   -2.021674    0.203124   -0.960541
 H   -3.831810    3.205927   -3.816651
 H    3.697072    4.241326   -0.626582
 H   -3.333233    1.804107   -5.796146
 H   -2.212047   -0.386650   -5.510351
 H   -0.616971   -2.781609   -1.693073
 H   -1.212659   -2.088363   -3.982623
 H    0.765677   -0.427875    0.570333
 H    3.651619   -0.642448    0.409355
 H    2.075813   -0.682226   -1.596765
 H    3.427439    0.445414   -1.745828
 H    0.557706    1.195522   -0.974503
 H    1.395812    1.595773   -2.483774
 H    1.293853    2.281689    1.023424
 H    1.865137    4.596074    0.784753
 H    2.909717    3.895965    2.042318
 H    3.410565    1.330157    1.937688
 H    4.236338    1.710424    0.421926
 H    0.705867   -1.609214    3.899217
 H    1.988663   -3.420595    1.715946
 H    1.438489   -3.985620    3.293349
 H    0.791336   -4.727574    1.821060
 H   -0.808148   -3.485142    4.140512
 H   -1.467680   -4.315146    2.726683
 H   -2.041141   -2.701071    3.150469
 H   -1.210626   -3.373580    0.552741
 H    0.387165   -2.759424    0.146589
 H   -1.233409   -0.364985    3.718644
 H   -0.217132    0.639523    2.704601
 H   -2.002637    0.378393    1.234117
 H   -2.536394   -1.129985    1.940008
 H   -2.413336    2.934561   -0.648129
 H   -3.992302    2.182080   -0.520522
 H   -3.791963    3.637408   -1.513930
