63 
5k0i_ligand_xtb.xyz
 O    1.679821    2.884396   -0.843670
 C   -2.733094    2.300038   -3.609565
 O    3.824428    4.331918    0.106720
 C   -2.409953    1.537581   -4.740294
 C   -2.048343    0.503242   -2.170873
 N   -1.198636   -1.562154    0.567054
 C   -1.914104    0.270881   -4.598984
 C   -1.063284   -2.035937   -1.818725
 C   -1.230448   -1.573609   -3.087935
 C   -1.725279   -0.269281   -3.315722
 O    2.753093   -1.222148    2.365029
 C    1.621629   -0.978862    1.991294
 N    1.370853   -0.272210    0.873288
 C    2.440058    0.232969    0.033005
 C    1.917234    0.516569   -1.375207
 C    1.022475    1.757745   -1.371394
 C    2.083066    2.689549    0.504012
 C    2.744817    4.004705    0.936916
 C    3.050829    1.512014    0.622189
 C    0.400771   -1.456663    2.785651
 C   -0.040090   -2.873149    2.350892
 C    1.151542   -3.836705    2.380219
 C   -1.082629   -3.421627    3.333567
 C   -0.591339   -2.828763    0.910651
 C   -0.776237   -0.469471    2.745318
 C   -1.792431   -0.798501    1.639771
 C   -1.391168   -1.179348   -0.727888
 C   -2.564359    1.814275   -2.337796
 C   -2.895088    2.633103   -1.129932
 N   -1.869246    0.036646   -0.920809
 H   -3.125889    3.297684   -3.747546
 H    3.505535    4.258279   -0.802226
 H   -2.558585    1.959883   -5.723122
 H   -1.662220   -0.329498   -5.461818
 H   -0.713450   -3.040264   -1.647874
 H   -0.996347   -2.201800   -3.936804
 H    0.422895   -0.097882    0.584555
 H    3.218330   -0.540773    0.008985
 H    1.352591   -0.335387   -1.757577
 H    2.768173    0.693108   -2.034669
 H    0.105744    1.562524   -0.795933
 H    0.734565    2.028079   -2.389971
 H    1.191968    2.507539    1.129118
 H    1.988795    4.803242    0.916909
 H    3.139617    3.911678    1.950314
 H    3.303196    1.340883    1.668301
 H    3.965755    1.758580    0.081366
 H    0.765149   -1.534176    3.815296
 H    1.962888   -3.489766    1.747077
 H    1.537932   -3.924263    3.392265
 H    0.842915   -4.823787    2.041346
 H   -0.675731   -3.425405    4.342099
 H   -1.333106   -4.446998    3.068361
 H   -1.999622   -2.842703    3.340633
 H   -1.308584   -3.652448    0.775714
 H    0.247567   -2.994324    0.228426
 H   -1.291412   -0.487091    3.706501
 H   -0.386635    0.541984    2.614944
 H   -2.192985    0.113800    1.196160
 H   -2.635157   -1.366474    2.053741
 H   -1.978929    2.985989   -0.656543
 H   -3.431444    2.026583   -0.403947
 H   -3.498711    3.495703   -1.400061
