68 
5k5e_ligand_aiqm1.xyz
 O   -2.296970    3.768984    1.726834
 C   -1.523000    4.219638    0.900809
 C   -1.856566    5.465597    0.104943
 C   -1.154216    5.487579   -1.246602
 C    0.350640    5.365267   -1.035993
 C    0.670029    4.156155   -0.197294
 C   -0.206277    3.609899    0.672738
 C    0.122025    2.347151    1.445007
 C    1.612620    2.010236    1.354967
 C    1.992362    0.869127    2.208877
 O    2.966466    0.096039    1.673685
 C    2.998639   -1.249586    2.175318
 C    1.946111   -2.071751    1.447820
 O    1.964961   -3.378243    2.007851
 C    1.711009   -4.342546    0.979612
 C    1.432906   -3.558104   -0.303541
 C    2.180016   -2.251841   -0.045560
 O    1.435831    0.599310    3.245225
 C    2.439297    2.614130    0.475637
 C    3.899851    2.335538    0.281925
 N    1.936605    3.621935   -0.343993
 C   -0.689358    1.150830    0.943624
 C   -1.454291    0.410671    1.864050
 C   -2.139875   -0.743370    1.497141
 C   -0.627910    0.747216   -0.389850
 C   -1.311897   -0.404757   -0.784581
 C   -2.051531   -1.145560    0.165142
 N   -2.599986   -2.261545   -0.444788
 C   -3.250293   -3.349871    0.253381
 C   -2.251052   -4.340560    0.840461
 C   -2.192668   -2.283677   -1.764981
 C   -1.411765   -1.134748   -2.033275
 C   -0.889984   -0.937594   -3.311415
 C   -1.148367   -1.882850   -4.298230
 C   -1.915618   -3.019422   -4.015906
 C   -2.447513   -3.241228   -2.748577
 H   -2.939822    5.530362    0.018196
 H   -1.524493    6.327191    0.697361
 H   -1.382572    6.406004   -1.788386
 H   -1.506092    4.653406   -1.860265
 H    0.727156    6.257080   -0.522867
 H    0.875518    5.295682   -1.991959
 H   -0.136692    2.495773    2.495861
 H    2.808278   -1.256891    3.247033
 H    4.002188   -1.628250    1.968819
 H    0.966971   -1.602180    1.615709
 H    0.865691   -4.962177    1.288571
 H    2.592397   -4.982681    0.876798
 H    1.770239   -4.092935   -1.189595
 H    0.365618   -3.355249   -0.406214
 H    1.811028   -1.411209   -0.630093
 H    3.249460   -2.371949   -0.238416
 H    4.414214    3.234308   -0.063439
 H    4.042228    1.545009   -0.456826
 H    4.362026    1.999049    1.203792
 H    2.580245    4.096301   -0.947203
 H   -1.476016    0.743283    2.894081
 H   -2.703011   -1.307290    2.230014
 H   -0.037895    1.317443   -1.105737
 H   -3.874095   -2.918914    1.037748
 H   -3.924347   -3.843122   -0.449288
 H   -1.601000   -3.846577    1.563474
 H   -2.770010   -5.155267    1.348131
 H   -1.624681   -4.769784    0.055618
 H   -0.289879   -0.062146   -3.532604
 H   -0.750660   -1.739874   -5.293670
 H   -2.098630   -3.745293   -4.797714
 H   -3.034293   -4.126554   -2.541592
