68 
5k5e_ligand_ani-2x.xyz
 O   -2.226171    3.642085    1.780333
 C   -1.492936    4.074119    0.907409
 C   -1.930358    5.238793    0.027352
 C   -1.191308    5.262657   -1.305281
 C    0.323241    5.258394   -1.073072
 C    0.717643    4.138107   -0.158484
 C   -0.147494    3.518287    0.681013
 C    0.200896    2.235087    1.386189
 C    1.684194    1.971691    1.328772
 C    2.116681    0.805743    2.135713
 O    3.151808    0.125141    1.591912
 C    3.352358   -1.202521    2.107113
 C    2.205944   -2.131393    1.728338
 O    2.610010   -3.464869    2.001243
 C    2.100119   -4.344353    1.000799
 C    1.210729   -3.498783    0.079814
 C    1.822500   -2.108160    0.249247
 O    1.571485    0.456008    3.159932
 C    2.547894    2.721396    0.591241
 C    4.039663    2.556645    0.520147
 N    2.044945    3.752449   -0.179766
 C   -0.638899    1.042991    0.867459
 C   -1.473782    0.341471    1.758655
 C   -2.214780   -0.752146    1.347061
 C   -0.567954    0.669292   -0.460164
 C   -1.285806   -0.448100   -0.899946
 C   -2.106925   -1.140936    0.010010
 N   -2.709214   -2.206732   -0.628829
 C   -3.507852   -3.203398    0.042269
 C   -2.675096   -4.184481    0.862586
 C   -2.243961   -2.252405   -1.932785
 C   -1.366523   -1.173853   -2.152385
 C   -0.772928   -1.010247   -3.407083
 C   -1.062122   -1.916036   -4.409560
 C   -1.938195   -2.990179   -4.177034
 C   -2.537501   -3.173173   -2.943131
 H   -3.015011    5.176523   -0.095956
 H   -1.722373    6.159605    0.591069
 H   -1.482675    6.143123   -1.887889
 H   -1.473942    4.383854   -1.900107
 H    0.627715    6.214193   -0.619281
 H    0.862977    5.180106   -2.027458
 H   -0.093501    2.328585    2.441678
 H    3.464859   -1.165565    3.194350
 H    4.279993   -1.554211    1.650836
 H    1.327802   -1.885665    2.341712
 H    1.560965   -5.165190    1.489009
 H    2.943268   -4.775424    0.445021
 H    1.216527   -3.854556   -0.954670
 H    0.171758   -3.500554    0.436804
 H    1.142294   -1.283039    0.011070
 H    2.720923   -2.010595   -0.371170
 H    4.520163    3.455442    0.114233
 H    4.308414    1.709880   -0.118059
 H    4.461873    2.358471    1.508223
 H    2.681441    4.245457   -0.791345
 H   -1.533732    0.676294    2.792738
 H   -2.850386   -1.297528    2.039786
 H    0.051131    1.245103   -1.146147
 H   -4.226063   -2.680451    0.684499
 H   -4.093686   -3.730850   -0.715423
 H   -2.073535   -3.652871    1.607350
 H   -3.326937   -4.889859    1.387117
 H   -2.000979   -4.756996    0.216849
 H   -0.090877   -0.183359   -3.595622
 H   -0.607246   -1.799271   -5.389564
 H   -2.150007   -3.690215   -4.981612
 H   -3.212158   -4.008428   -2.769328
