31 
5k6a_ligand_xtb.xyz
 C   -0.064011    0.336188    1.376385
 C    1.390919    0.694425    1.616050
 O    1.777135    1.234493    2.628141
 C    2.275162    0.263561    0.525703
 C    3.660619    0.308153    0.702559
 C    4.513689   -0.182776   -0.266264
 O    5.866545   -0.159559   -0.131763
 C    3.975314   -0.736075   -1.431600
 C    2.612928   -0.769663   -1.625490
 C    1.744188   -0.261540   -0.658934
 O    0.418398   -0.301960   -0.927409
 C   -0.413213    0.505882   -0.104464
 C   -1.852534    0.129001   -0.348645
 C   -2.837092    1.100329   -0.282366
 C   -4.172800    0.755833   -0.458487
 O   -5.102439    1.743855   -0.381533
 C   -4.516280   -0.567791   -0.707115
 C   -3.528156   -1.533069   -0.775605
 C   -2.200672   -1.193357   -0.592164
 H   -0.713291    0.954503    1.995935
 H   -0.205395   -0.709996    1.665701
 H    4.035846    0.725093    1.627196
 H    6.103518    0.243046    0.712498
 H    4.650531   -1.126158   -2.176163
 H    2.191838   -1.183973   -2.527432
 H   -0.252704    1.560636   -0.384553
 H   -2.590670    2.133845   -0.095652
 H   -5.983649    1.378269   -0.526005
 H   -5.554621   -0.837173   -0.848645
 H   -3.799427   -2.559597   -0.971194
 H   -1.429575   -1.944626   -0.651787
