59 
5k76_ligand_aiqm1.xyz
 C  -16.078732  -42.738549   -9.037895
 C  -17.861612  -42.805743   -7.865905
 N  -20.374213  -43.812172   -8.275958
 C  -19.443392  -43.989948   -9.211053
 C  -18.146715  -43.510386   -9.075848
 C  -16.947802  -43.449401   -9.847880
 C  -16.679028  -44.070641  -11.179290
 C  -16.657471  -45.605257  -11.125409
 C  -16.437013  -46.168967  -12.518329
 C  -15.206254  -44.288203  -13.183912
 C  -15.370305  -43.617365  -11.828725
 C  -23.183959  -43.280807  -11.531605
 C  -23.316626  -44.208029  -12.725510
 C  -22.911700  -45.629009  -12.367718
 C  -21.454142  -45.630008  -11.898991
 N  -24.744228  -44.184869  -13.320108
 C  -25.031674  -42.927931  -14.093810
 C  -27.176359  -44.436193  -13.009784
 N  -16.608934  -42.333016   -7.839969
 N  -18.785619  -42.625871   -6.882406
 C  -19.958559  -43.145510   -7.161640
 O  -15.223097  -45.705071  -13.089601
 N  -19.834211  -44.697533  -10.371434
 C  -21.223412  -44.673162  -10.728956
 C  -21.719478  -43.261526  -11.097740
 C  -26.428470  -43.005283  -14.699486
 O  -27.389964  -43.217825  -13.689817
 C  -25.830311  -44.410377  -12.299012
 H  -15.050345  -42.484066   -9.274320
 H  -17.495911  -43.779025  -11.880665
 H  -17.579080  -46.000772  -10.692769
 H  -15.833352  -45.921630  -10.481037
 H  -17.277650  -45.885749  -13.178246
 H  -16.366603  -47.258213  -12.511659
 H  -14.253157  -44.031282  -13.648234
 H  -16.013977  -43.963834  -13.861282
 H  -14.532313  -43.894751  -11.184395
 H  -15.347589  -42.531482  -11.957689
 H  -23.782850  -43.660262  -10.700005
 H  -23.540919  -42.274046  -11.768785
 H  -22.674936  -43.848658  -13.533592
 H  -23.041857  -46.288617  -13.232191
 H  -23.546641  -46.005812  -11.559576
 H  -20.802305  -45.325332  -12.726895
 H  -21.159898  -46.633795  -11.606723
 H  -24.779667  -44.966961  -13.981072
 H  -24.275593  -42.811546  -14.867099
 H  -24.972784  -42.084219  -13.411393
 H  -27.216846  -45.277939  -13.709905
 H  -27.977409  -44.532536  -12.289445
 H  -20.727897  -43.025268   -6.403618
 H  -19.231169  -44.479856  -11.153345
 H  -21.791176  -45.011477   -9.862279
 H  -21.592601  -42.615181  -10.236916
 H  -21.093839  -42.866415  -11.907063
 H  -26.471957  -43.807802  -15.445084
 H  -26.677150  -42.065886  -15.175474
 H  -25.808925  -43.587753  -11.590780
 H  -25.635125  -45.339976  -11.770773
