59 
5k76_ligand_xtb.xyz
 C  -16.024508  -43.023028   -8.758954
 C  -17.969540  -42.951583   -7.888495
 N  -20.455285  -43.635169   -8.753115
 C  -19.427830  -43.832843   -9.581229
 C  -18.131455  -43.523854   -9.219481
 C  -16.822419  -43.551188   -9.759223
 C  -16.416699  -44.088673  -11.098354
 C  -16.612695  -45.611586  -11.168121
 C  -16.190955  -46.125770  -12.542487
 C  -14.624471  -44.410966  -12.809219
 C  -14.954590  -43.803407  -11.446748
 C  -23.243859  -43.137562  -11.653794
 C  -23.496503  -44.059370  -12.838816
 C  -22.920467  -45.451270  -12.595593
 C  -21.412231  -45.342127  -12.361396
 N  -24.965162  -44.170130  -13.201695
 C  -25.486277  -42.989246  -13.929096
 C  -27.282639  -44.702277  -12.597029
 N  -16.693880  -42.655848   -7.645160
 N  -19.012974  -42.762846   -7.065558
 C  -20.169215  -43.125913   -7.547557
 O  -14.853822  -45.803153  -12.853633
 N  -19.746214  -44.399204  -10.840971
 C  -21.141522  -44.427997  -11.166321
 C  -21.735333  -43.033388  -11.436184
 C  -26.919501  -43.273584  -14.391358
 O  -27.750268  -43.582335  -13.303980
 C  -25.868492  -44.458870  -12.061879
 H  -14.956823  -42.873235   -8.790869
 H  -17.041474  -43.627287  -11.884272
 H  -17.654503  -45.871212  -10.975229
 H  -15.992947  -46.079053  -10.400928
 H  -16.859207  -45.702415  -13.315260
 H  -16.247597  -47.216709  -12.593675
 H  -13.566747  -44.282420  -13.053179
 H  -15.228493  -43.915398  -13.590460
 H  -14.310772  -44.252782  -10.689873
 H  -14.766486  -42.728847  -11.469722
 H  -23.678738  -43.547232  -10.742681
 H  -23.661194  -42.144872  -11.834130
 H  -23.009033  -43.634932  -13.723947
 H  -23.117780  -46.099315  -13.455956
 H  -23.367936  -45.902271  -11.708837
 H  -20.922268  -44.942556  -13.252487
 H  -20.995040  -46.328688  -12.164747
 H  -25.029472  -44.974502  -13.840338
 H  -24.848164  -42.773254  -14.786932
 H  -25.478942  -42.135299  -13.249955
 H  -27.294895  -45.596858  -13.240652
 H  -27.976364  -44.854331  -11.769425
 H  -21.033715  -42.985942   -6.902047
 H  -19.146894  -44.049314  -11.576611
 H  -21.628997  -44.826114  -10.268672
 H  -21.530985  -42.420593  -10.558736
 H  -21.250864  -42.578487  -12.303752
 H  -26.918380  -44.099136  -15.121824
 H  -27.345697  -42.387266  -14.862941
 H  -25.875664  -43.593325  -11.398553
 H  -25.509924  -45.331965  -11.517959
