19 
5k8n_ligand_ani-2x.xyz
 C   65.198411  100.269349  -70.540192
 C   65.115666  100.850874  -69.291043
 C   66.168946  101.638211  -68.781872
 C   67.310735  101.862791  -69.588291
 C   67.395390  101.239052  -70.837376
 C   66.350508  100.461483  -71.297485
 N   66.455512   99.836043  -72.619814
 O   65.506923   99.177335  -73.009579
 O   67.485106  100.011953  -73.248798
 C   68.416063  102.719442  -69.076535
 O   68.632975  102.923889  -67.901320
 O   69.216524  103.288831  -69.997959
 N   66.048559  102.204573  -67.546293
 H   64.391906   99.663270  -70.934380
 H   64.225734  100.702648  -68.684231
 H   68.288939  101.300623  -71.449385
 H   68.847049  103.168664  -70.883574
 H   65.332673  101.842435  -66.940563
 H   66.903781  102.542335  -67.121409
