18 
5k8o_ligand_xtb.xyz
 O   34.608338   77.961989 -101.563873
 C   34.408278   78.570344 -100.555881
 O   33.256573   79.229865 -100.352148
 C   35.415562   78.688067  -99.446062
 C   35.623810   79.896184  -98.803948
 C   36.613189   80.012267  -97.835104
 N   36.810837   81.274492  -97.175516
 O   37.725388   81.358277  -96.384860
 O   36.042937   82.173529  -97.447586
 C   37.408834   78.922384  -97.497329
 C   37.202342   77.715464  -98.126031
 C   36.211592   77.575851  -99.103258
 O   35.967065   76.409578  -99.700938
 H   33.212507   79.670679  -99.493071
 H   35.053486   80.778315  -99.062070
 H   38.172996   79.041213  -96.744683
 H   37.811778   76.860955  -97.867605
 H   36.590887   75.726846  -99.419241
