13 
5kbe_ligand_xtb.xyz
 C   28.911466    2.481975  -12.947058
 C   29.016157    2.779524  -14.302297
 C   30.251728    3.064963  -14.849132
 C   31.389753    3.057797  -14.058335
 C   31.284863    2.762219  -12.711072
 C   30.051669    2.474781  -12.153152
 O   27.677736    2.206063  -12.442200
 H   28.120958    2.780731  -14.903327
 H   30.327858    3.295132  -15.901379
 H   32.352544    3.281652  -14.491621
 H   32.165562    2.753919  -12.085916
 H   29.971100    2.243577  -11.098604
 H   27.745606    2.016567  -11.498607
