16 
5kbg_ligand_dft.xyz
 C    0.543001    1.434843   -0.000069
 C    1.828358    0.903524   -0.000044
 C    1.995053   -0.478716    0.000061
 C    0.887202   -1.316371    0.000044
 C   -0.395164   -0.771372   -0.000013
 C   -0.587682    0.617738   -0.000035
 C   -1.980777    1.196268    0.000111
 O   -1.437279   -1.649687   -0.000000
 H    0.405981    2.513631   -0.000145
 H    2.690391    1.562856   -0.000085
 H    2.991744   -0.909916    0.000109
 H    0.992155   -2.396338    0.000068
 H   -2.552745    0.892955    0.887696
 H   -1.946936    2.288633    0.000342
 H   -2.552854    0.893388   -0.887568
 H   -2.269454   -1.163206   -0.000746
