16 
5kbg_ligand_aiqm1.xyz
 C   31.245745    2.949487  -13.061559
 C   31.176221    3.320253  -14.401071
 C   29.964247    3.212423  -15.076839
 C   28.836883    2.739210  -14.418232
 C   28.923547    2.372687  -13.078471
 C   30.129587    2.471039  -12.375391
 C   30.214738    2.072345  -10.924921
 O   27.774275    1.914207  -12.489550
 H   32.186626    3.030722  -12.528716
 H   32.056582    3.687896  -14.908365
 H   29.893073    3.496348  -16.118192
 H   27.883220    2.645992  -14.921140
 H   29.956782    1.019577  -10.776034
 H   31.227760    2.218776  -10.555173
 H   29.544036    2.668218  -10.298748
 H   27.953677    1.693721  -11.572996
