14 
5kbi_ligand_ani-2x.xyz
 C   31.470745    2.769005  -13.069509
 C   30.344176    2.495198  -12.296208
 C   29.087361    2.464234  -12.885918
 O   27.990241    2.197684  -12.132833
 C   28.963212    2.710255  -14.262214
 O   27.679994    2.655884  -14.745183
 C   30.084955    2.982269  -15.029018
 C   31.344588    3.011927  -14.430553
 H   32.449384    2.790788  -12.597625
 H   30.423891    2.302696  -11.229939
 H   27.218472    2.220084  -12.718259
 H   27.681762    2.836459  -15.693235
 H   29.977809    3.171631  -16.095879
 H   32.221210    3.225485  -15.034927
