14 
5kbi_ligand_aiqm1.xyz
 C   31.471280    2.769221  -13.070549
 C   30.343317    2.495491  -12.297718
 C   29.088001    2.464688  -12.887868
 O   27.988016    2.197523  -12.132312
 C   28.965770    2.709528  -14.257339
 O   27.683144    2.656291  -14.748837
 C   30.084249    2.981732  -15.027102
 C   31.345515    3.012299  -14.432667
 H   32.444290    2.790701  -12.601388
 H   30.418678    2.303713  -11.236051
 H   27.221442    2.219428  -12.714879
 H   27.698436    2.838509  -15.690120
 H   29.970303    3.169883  -16.089075
 H   32.215359    3.224591  -15.035395
