39 
5kde_ligand_xtb.xyz
 C   82.925156  -70.640583  118.958492
 C   84.926992  -71.734459  117.925418
 C   85.388039  -70.469008  118.552279
 C   80.742293  -70.981882  118.619957
 N   82.720975  -69.433917  119.479932
 C   78.451560  -71.966125  118.616515
 C   79.388970  -73.059265  118.252185
 N   81.977953  -71.456496  118.495149
 N   79.731875  -71.687464  118.047450
 N   80.417205  -69.817458  119.172923
 N   84.194136  -71.121119  118.986765
 C   81.442660  -69.068225  119.574164
 C   81.167187  -67.791801  120.177162
 N   79.913645  -67.242820  120.281545
 C   80.001293  -66.100544  121.003530
 C   81.311571  -65.894452  121.364903
 C   82.050649  -66.963066  120.849065
 C   78.721145  -67.726714  119.708624
 C   78.619660  -67.892617  118.332495
 C   77.443313  -68.364148  117.783593
 C   76.360739  -68.657233  118.597856
 C   76.455167  -68.471392  119.965625
 C   77.632867  -68.005367  120.523953
 H   85.419797  -72.663800  118.179145
 H   84.500549  -71.706685  116.929655
 H   85.289967  -69.540274  118.002837
 H   86.210662  -70.492796  119.254827
 H   78.296031  -71.724880  119.661294
 H   77.605118  -71.753043  117.977249
 H   79.213700  -73.632036  117.350922
 H   79.900308  -73.600947  119.039114
 H   79.130707  -65.501282  121.190351
 H   81.687754  -65.069736  121.937457
 H   83.101418  -67.143688  120.949689
 H   79.466177  -67.659029  117.705548
 H   77.368627  -68.500911  116.715087
 H   75.442764  -69.027035  118.165255
 H   75.612159  -68.694750  120.602996
 H   77.719212  -67.868953  121.592191
