43 
5kdf_ligand_ani-2x.xyz
 C   34.320784   16.056376   25.045893
 C   32.185194   15.191360   25.824089
 C   30.538089   14.901985   24.303735
 C   30.058862   14.863715   22.921501
 C   28.916093   14.248748   22.471673
 C   28.916592   14.315064   21.058417
 C   30.059425   14.979567   20.686331
 C   31.914878   16.185107   21.765157
 C   33.054065   15.733725   21.098834
 C   34.186290   16.536812   21.032378
 C   34.181908   17.801303   21.615609
 C   33.035558   18.256729   22.264618
 C   29.669876   14.275385   28.897828
 N   29.253345   14.318566   27.513377
 C   27.864886   14.017088   27.247099
 C   30.119467   14.611056   26.515916
 N   31.385066   14.897719   26.856266
 N   33.483483   15.484730   26.083440
 C   33.944065   15.599135   27.450059
 N   29.642556   14.592024   25.248107
 N   31.815812   15.201610   24.530017
 N   30.759398   15.336404   21.813086
 C   31.900623   17.456800   22.340413
 H   34.424851   17.143445   25.169356
 H   35.317252   15.605149   25.101585
 H   33.887231   15.845588   24.070237
 H   28.177276   13.789744   23.117660
 H   28.162165   13.924221   20.387187
 H   30.439607   15.251577   19.712459
 H   33.048442   14.743027   20.650804
 H   35.074107   16.174207   20.520329
 H   35.067416   18.429734   21.565461
 H   33.025828   19.244971   22.718534
 H   29.085395   14.992310   29.488872
 H   29.497171   13.274254   29.313589
 H   30.727912   14.521736   28.972209
 H   27.630169   12.991754   27.561859
 H   27.217996   14.700131   27.812383
 H   27.666147   14.125295   26.183206
 H   33.756096   16.599203   27.864810
 H   33.438107   14.861355   28.074556
 H   35.021047   15.408695   27.469997
 H   31.012073   17.819195   22.850865
