56 
5kgw_ligand_ani-2x.xyz
 C   -2.194694   -1.774651    1.911474
 C   -0.337644    0.920898    0.367051
 C    1.432687   -0.257453    1.687495
 C    3.713771   -0.320650    0.912307
 C    5.670149   -0.082451   -1.067989
 C    4.437582    0.801900   -1.232317
 C    3.376609    0.436199   -0.214045
 C   -0.800367    2.232352    0.002079
 C   -0.916836    4.562540   -0.556820
 C   -2.963277    3.251340   -0.532951
 C   -3.944456    0.391710   -0.041360
 N   -2.575568    0.853686    0.116569
 C   -1.460449    0.110638    0.411958
 C   -1.545044   -1.394114    0.576682
 O   -2.329925   -1.998419   -0.431602
 C   -1.659796   -2.456313   -1.618510
 C   -2.799130   -2.794011   -2.580364
 C   -0.865458   -3.722273   -1.292035
 C   -0.756364   -1.383862   -2.236099
 O   -3.374797   -1.806693    2.152038
 O   -1.264893   -2.071010    2.840990
 C    1.055847    0.509557    0.573478
 C    2.743156   -0.663954    1.853681
 O    4.974112   -0.789475    1.142914
 C    6.016954   -0.161196    0.407205
 C    2.051653    0.843334   -0.351303
 C   -0.160612    3.468782   -0.191741
 C   -2.310104    4.452468   -0.730205
 C   -2.189753    2.147525   -0.152947
 H    0.697269   -0.533175    2.439370
 H    6.519648    0.318991   -1.631528
 H    5.466513   -1.092331   -1.443043
 H    4.031755    0.725388   -2.247722
 H    4.721738    1.855048   -1.090195
 H   -0.433222    5.522697   -0.714092
 H   -4.038684    3.167910   -0.672003
 H   -4.073037   -0.579319    0.435895
 H   -4.610079    1.112323    0.442029
 H   -4.208408    0.323339   -1.103631
 H   -0.531316   -1.811976    0.581800
 H   -2.407289   -3.174768   -3.530093
 H   -3.452826   -3.553819   -2.141349
 H   -3.397712   -1.900476   -2.785313
 H   -1.515312   -4.453368   -0.801600
 H   -0.467054   -4.165448   -2.211354
 H   -0.016904   -3.513526   -0.631648
 H   -0.370186   -1.749550   -3.193779
 H   -1.313883   -0.460096   -2.417279
 H    0.108050   -1.146937   -1.605767
 H   -1.749614   -2.300904    3.652257
 H    3.043646   -1.258367    2.710178
 H    6.186331    0.848564    0.812091
 H    6.907331   -0.766223    0.595102
 H    1.772377    1.427757   -1.228045
 H    0.914378    3.558746   -0.048072
 H   -2.880565    5.330642   -1.021108
