56 
5kgx_ligand_xtb.xyz
 C   -2.278764    0.204727    2.414753
 C    0.197385    1.324642    0.118858
 C    1.533626   -0.290255    1.472302
 C    3.432737   -1.413724    0.506717
 C    4.811909   -2.358386   -1.699613
 C    4.111070   -1.016030   -1.882978
 C    3.216704   -0.749233   -0.701482
 C    0.276772    2.632630   -0.451022
 C    1.047767    4.672124   -1.409813
 C   -1.309355    4.439816   -0.910758
 C   -3.293602    2.381215    0.246044
 N   -1.872009    2.225909    0.106012
 C   -1.125796    1.126184    0.444930
 C   -1.739326   -0.118671    1.021530
 O   -2.758837   -0.592076    0.171346
 C   -2.913222   -2.008975    0.040735
 C   -4.187374   -2.155830   -0.794693
 C   -3.100324   -2.691387    1.398926
 C   -1.722195   -2.616307   -0.711676
 O   -3.431094    0.363822    2.708050
 O   -1.283781    0.320106    3.304348
 C    1.304303    0.385017    0.273624
 C    2.581143   -1.179878    1.583951
 O    4.439287   -2.315110    0.707395
 C    5.422603   -2.391977   -0.303467
 C    2.157633    0.138973   -0.797107
 C    1.327289    3.410327   -0.937822
 C   -0.255243    5.179344   -1.399889
 C   -1.036678    3.161583   -0.434285
 H    0.903386   -0.094458    2.326302
 H    5.591712   -2.502133   -2.447711
 H    4.087198   -3.170475   -1.789472
 H    3.522387   -1.008917   -2.802574
 H    4.857190   -0.218614   -1.964736
 H    1.846201    5.290621   -1.793233
 H   -2.310384    4.843773   -0.892734
 H   -3.752044    1.409542    0.408960
 H   -3.531598    3.036238    1.089290
 H   -3.703608    2.818747   -0.665296
 H   -0.928473   -0.846631    1.135355
 H   -4.396503   -3.203496   -0.989024
 H   -5.025787   -1.715875   -0.262066
 H   -4.066699   -1.633004   -1.739262
 H   -3.890852   -2.194280    1.956219
 H   -3.375701   -3.731984    1.250353
 H   -2.185705   -2.661729    1.988060
 H   -1.925015   -3.658798   -0.940040
 H   -1.561346   -2.074664   -1.640673
 H   -0.807298   -2.568033   -0.124718
 H   -1.634877    0.567927    4.175221
 H    2.769415   -1.706224    2.506813
 H    6.130209   -1.557870   -0.188448
 H    5.953531   -3.329466   -0.118947
 H    1.979633    0.639272   -1.738246
 H    2.336618    3.026840   -0.934119
 H   -0.434119    6.175411   -1.777594
