56 
5kgx_ligand_aiqm1.xyz
 C   -2.320966    0.151931    2.434783
 C    0.170132    1.304117    0.117464
 C    1.559389   -0.279093    1.496601
 C    3.441611   -1.426540    0.515871
 C    4.872956   -2.377714   -1.682238
 C    4.084916   -1.093722   -1.908104
 C    3.202157   -0.803603   -0.714691
 C    0.274623    2.622039   -0.448451
 C    1.088934    4.656187   -1.424499
 C   -1.285707    4.463351   -0.914536
 C   -3.306494    2.496589    0.252922
 N   -1.881128    2.252326    0.104890
 C   -1.156406    1.122093    0.447573
 C   -1.787828   -0.118463    1.018692
 O   -2.820351   -0.571026    0.173354
 C   -2.947760   -2.012807    0.020614
 C   -4.243727   -2.186880   -0.753177
 C   -3.042296   -2.691159    1.385352
 C   -1.763444   -2.546124   -0.781452
 O   -3.467295    0.321436    2.748151
 O   -1.311756    0.157386    3.330825
 C    1.289124    0.355420    0.277831
 C    2.624206   -1.163546    1.612580
 O    4.446711   -2.333445    0.707953
 C    5.465269   -2.332121   -0.288680
 C    2.127530    0.083945   -0.805596
 C    1.345947    3.382074   -0.949194
 C   -0.215066    5.189579   -1.408405
 C   -1.019262    3.172795   -0.434759
 H    0.938900   -0.079618    2.361055
 H    5.670952   -2.483116   -2.419060
 H    4.217196   -3.248844   -1.764612
 H    3.477915   -1.154362   -2.811519
 H    4.778000   -0.259525   -2.056520
 H    1.899641    5.257354   -1.814222
 H   -2.287388    4.871857   -0.896973
 H   -3.799611    1.619546    0.655254
 H   -3.470531    3.345820    0.921631
 H   -3.740084    2.736062   -0.720218
 H   -0.995120   -0.856849    1.150455
 H   -4.412344   -3.245182   -0.958539
 H   -5.081052   -1.801193   -0.172050
 H   -4.188917   -1.646726   -1.698318
 H   -3.849458   -2.247957    1.968311
 H   -3.251209   -3.752996    1.249987
 H   -2.113014   -2.603471    1.951264
 H   -1.880887   -3.619907   -0.937561
 H   -1.719350   -2.054676   -1.753331
 H   -0.817021   -2.380576   -0.266081
 H   -1.704085    0.366891    4.187912
 H    2.835203   -1.662109    2.549973
 H    6.079014   -1.430872   -0.174882
 H    6.078887   -3.205232   -0.072924
 H    1.940144    0.573609   -1.755725
 H    2.351306    2.977888   -0.954478
 H   -0.381007    6.189456   -1.787902
