50 
5kkr_ligand_ani-2x.xyz
 C  -70.248165   53.687978   -7.575266
 C  -71.069728   53.775421   -6.395422
 C  -72.012443   52.746377   -6.238156
 N  -72.161995   51.749698   -7.159105
 N  -70.419174   52.736101   -8.473409
 C  -74.435263   52.748437   -2.824942
 O  -73.493908   53.781377   -3.017338
 C  -72.744631   53.720202   -4.141687
 C  -72.839908   52.736795   -5.089205
 C  -71.797698   54.789193   -4.310170
 O  -71.787741   55.713175   -3.318317
 C  -70.870865   56.777753   -3.442176
 C  -70.989957   54.810276   -5.420201
 C  -71.371421   51.813716   -8.197558
 N  -69.274780   54.632875   -7.785256
 C  -68.290525   54.541718   -8.814777
 C  -68.626830   54.805457  -10.152133
 C  -70.019590   55.206669  -10.562167
 C  -67.619135   54.706319  -11.114012
 C  -66.979283   54.219229   -8.469983
 C  -65.990640   54.104697   -9.439417
 C  -66.327342   54.339314  -10.766128
 O  -65.373330   54.279389  -11.766247
 C  -64.850023   53.049511  -12.095888
 C  -63.605134   53.062043  -12.721974
 C  -63.027618   51.866543  -13.126973
 C  -63.691633   50.658698  -12.920084
 C  -64.936929   50.658640  -12.303984
 C  -65.528408   51.849648  -11.887396
 H  -75.179271   52.730391   -3.631905
 H  -73.945254   51.768311   -2.759532
 H  -74.932994   52.967336   -1.879521
 H  -73.545926   51.919593   -5.004957
 H  -69.836648   56.412215   -3.486720
 H  -71.080728   57.386293   -4.331484
 H  -70.998947   57.390464   -2.548828
 H  -70.299331   55.633367   -5.579289
 H  -71.483641   51.027047   -8.942277
 H  -68.960321   55.110808   -6.953684
 H  -70.660771   54.326607  -10.668539
 H  -70.478714   55.849348   -9.805543
 H  -70.004433   55.736292  -11.519576
 H  -67.841169   54.915621  -12.157351
 H  -66.730764   54.028192   -7.427751
 H  -64.971832   53.842071   -9.169098
 H  -63.112533   54.016539  -12.885245
 H  -62.054236   51.878369  -13.610951
 H  -63.239062   49.723921  -13.239596
 H  -65.460747   49.719874  -12.141813
 H  -66.500580   51.848294  -11.402567
