50 
5kkr_ligand_aiqm1.xyz
 C  -70.139016   53.717861   -7.527049
 C  -70.992222   53.776973   -6.385372
 C  -71.916755   52.728908   -6.262584
 N  -72.005346   51.724523   -7.182007
 N  -70.224301   52.749345   -8.424224
 C  -74.492974   52.710106   -2.954405
 O  -73.552627   53.761157   -3.120222
 C  -72.760280   53.693910   -4.209626
 C  -72.796036   52.703308   -5.154124
 C  -71.827680   54.776370   -4.337881
 O  -71.901276   55.696550   -3.348194
 C  -71.021431   56.802659   -3.435120
 C  -70.964367   54.810166   -5.401393
 C  -71.169388   51.806910   -8.189299
 N  -69.206809   54.705814   -7.736903
 C  -68.200262   54.616127   -8.745411
 C  -68.522712   54.817511  -10.095920
 C  -69.923568   55.133920  -10.539743
 C  -67.501367   54.687496  -11.039228
 C  -66.887140   54.325444   -8.368878
 C  -65.878882   54.212971   -9.317152
 C  -66.198787   54.389384  -10.658698
 O  -65.210585   54.321312  -11.618669
 C  -64.842430   53.063825  -12.042432
 C  -63.750218   53.015247  -12.904965
 C  -63.320648   51.789591  -13.395866
 C  -63.970992   50.612709  -13.029930
 C  -65.059735   50.674953  -12.167741
 C  -65.507029   51.896768  -11.664862
 H  -75.195641   52.674483   -3.789384
 H  -73.992175   51.744246   -2.861537
 H  -75.027868   52.932945   -2.037295
 H  -73.487449   51.877230   -5.098246
 H  -69.977144   56.481398   -3.406624
 H  -71.197110   57.378240   -4.346770
 H  -71.233150   57.420792   -2.569665
 H  -70.275198   55.636112   -5.504430
 H  -71.229372   51.022655   -8.933675
 H  -68.966269   55.248404   -6.926775
 H  -70.546236   54.239192  -10.496921
 H  -70.380363   55.884419   -9.892879
 H  -69.921335   55.505532  -11.564275
 H  -67.712190   54.821669  -12.094144
 H  -66.656878   54.170396   -7.319366
 H  -64.863235   53.973527   -9.036242
 H  -63.260899   53.939236  -13.180053
 H  -62.472401   51.757128  -14.067099
 H  -63.633121   49.660605  -13.413714
 H  -65.571872   49.766301  -11.880322
 H  -66.357229   51.941872  -10.998284
