13 
5ko5_ligand_xtb.xyz
 N  114.654845   17.785558    5.781865
 C  113.676862   18.559850    5.283818
 N  115.079841   16.755889    3.701207
 C  115.405096   16.834055    5.004285
 O  116.253005   16.198461    5.577801
 N  113.008162   19.389615    6.119944
 C  113.383625   18.434515    3.935131
 C  114.133579   17.506536    3.210921
 H  114.900865   17.832022    6.763166
 H  113.343727   19.546432    7.054291
 H  112.365105   20.056304    5.732703
 H  112.611678   19.026832    3.476971
 H  113.941610   17.374930    2.152895
