29 
5kre_ligand_xtb.xyz
 C    0.944097   -0.207869   -0.539673
 C   -0.478707    0.023245   -1.010469
 C    3.080615    0.748516    0.054603
 C   -1.713089   -1.320538    0.727812
 C   -1.455286   -1.133078   -0.765547
 C    3.594802   -0.515451    0.289283
 C    2.788945   -1.622452    0.095677
 C    1.475358   -1.471413   -0.317034
 C    1.770167    0.898193   -0.358474
 C   -2.254792   -0.022509    1.320529
 C   -1.273201    1.114923    1.035139
 N   -1.030182    1.216498   -0.382195
 C   -1.389006    2.272434   -1.124385
 O   -1.252056    2.370291   -2.321575
 H   -0.445885    0.245622   -2.086335
 H    3.702869    1.620942    0.189809
 H   -0.783067   -1.587295    1.233821
 H   -2.428511   -2.130155    0.882991
 H   -2.396706   -0.886628   -1.262513
 H   -1.077929   -2.049892   -1.216865
 H    4.617658   -0.636210    0.613536
 H    3.182377   -2.614166    0.265479
 H    0.876297   -2.355638   -0.468233
 H    1.380541    1.887147   -0.552087
 H   -3.220337    0.212979    0.867407
 H   -2.396440   -0.121226    2.397519
 H   -0.322966    0.913774    1.544473
 H   -1.667482    2.067555    1.396700
 H   -1.828083    3.082401   -0.509694
