29 
5kre_ligand_aiqm1.xyz
 C    0.980367   -0.179003   -0.527516
 C   -0.454319    0.065804   -0.968389
 C    3.214580    0.738724   -0.253651
 C   -1.811783   -1.368456    0.648462
 C   -1.416356   -1.117182   -0.808663
 C    3.680808   -0.495565    0.192889
 C    2.801881   -1.568439    0.271818
 C    1.459807   -1.416110   -0.082802
 C    1.878884    0.891068   -0.611293
 C   -2.370621   -0.099746    1.286104
 C   -1.369226    1.041813    1.134451
 N   -1.024102    1.224070   -0.265255
 C   -1.345995    2.340739   -0.947240
 O   -1.141516    2.522297   -2.134616
 H   -0.423253    0.363911   -2.017480
 H    3.891343    1.580025   -0.329652
 H   -0.941531   -1.699338    1.219804
 H   -2.543050   -2.178314    0.699429
 H   -2.316112   -0.876910   -1.381219
 H   -0.987280   -2.012321   -1.258807
 H    4.719375   -0.620114    0.468961
 H    3.154011   -2.534823    0.609111
 H    0.803288   -2.273350   -0.015997
 H    1.520262    1.845891   -0.975621
 H   -3.310384    0.177831    0.801076
 H   -2.583486   -0.261219    2.344252
 H   -0.461209    0.828832    1.702528
 H   -1.785992    1.981818    1.501316
 H   -1.818391    3.098065   -0.302300
