35 
5ktu_ligand_aiqm1.xyz
 C   50.488406  121.370158    6.844265
 C   51.545907  120.565264    6.072446
 N   51.207589  120.468822    4.659884
 C   50.288348  119.503404    4.320805
 O   49.940541  118.659395    5.128904
 C   49.766051  119.498748    2.899633
 C   51.305694  121.749120    3.952475
 C   50.522887  122.779553    4.718413
 C   50.158959  122.579179    6.033749
 N   49.452293  123.665640    6.406278
 N   49.333094  124.583609    5.413386
 C   49.984867  124.047756    4.385270
 N   50.082940  124.642832    3.138445
 C   49.817388  125.980625    2.795426
 C   50.454507  126.485713    1.655452
 C   50.203026  127.777596    1.210067
 C   49.308849  128.593336    1.896339
 C   48.675730  128.093015    3.029641
 C   48.915524  126.799160    3.486101
 H   49.593302  120.761476    6.996208
 H   50.876943  121.648978    7.825992
 H   51.638621  119.558866    6.469323
 H   52.514443  121.065980    6.145138
 H   49.222040  118.570484    2.754641
 H   49.085933  120.334464    2.733052
 H   50.576785  119.564390    2.173257
 H   52.364873  122.027230    3.888638
 H   50.935426  121.631020    2.936777
 H   49.034449  123.855331    7.296088
 H   50.787831  124.222130    2.558568
 H   51.150671  125.856279    1.109358
 H   50.710863  128.140539    0.325735
 H   49.109381  129.599379    1.555065
 H   47.978168  128.719692    3.571943
 H   48.421669  126.429837    4.371236
