58 
5ktw_ligand_aiqm1.xyz
 C  -33.680929    0.626229  -14.691031
 C  -32.909596    2.555013  -15.899287
 C  -33.937183   -3.042434  -15.615820
 C  -33.508979    3.379201  -14.955099
 C  -35.423919   -3.380570  -15.554493
 C  -33.273787   -3.660709  -16.834813
 N  -33.720829   -1.600332  -15.633752
 C  -33.808708   -0.857028  -14.498286
 O  -33.976486   -1.356139  -13.395911
 C  -32.996366    1.172929  -15.778961
 C  -34.190535    2.835002  -13.856838
 C  -34.265056    1.446086  -13.728137
 N  -34.746858    3.737626  -12.945999
 C  -35.500980    3.520098  -11.806871
 C  -35.988948    4.537926  -10.955217
 C  -36.690026    3.859235   -9.975930
 N  -36.577050    2.540912  -10.245259
 N  -35.862839    2.315588  -11.380857
 C  -37.173929    1.403932   -9.569826
 C  -38.271744    0.791982  -10.397164
 C  -39.311798   -0.049634   -9.721046
 C  -39.680831    1.300041  -10.281902
 C  -37.384237    4.513401   -8.820059
 C  -37.441235    6.022532   -9.096944
 N  -36.168393    6.519494   -9.597488
 C  -35.852275    6.033810  -10.944197
 C  -35.202413    6.773874   -8.653311
 O  -35.473471    6.778429   -7.464436
 C  -33.806741    7.096586   -9.144983
 H  -32.372759    2.998454  -16.728690
 H  -33.458955   -3.405673  -14.707081
 H  -33.440707    4.456999  -15.061394
 H  -35.878391   -2.930552  -14.673253
 H  -35.939957   -3.012074  -16.446173
 H  -35.562247   -4.461382  -15.501310
 H  -33.744123   -3.288934  -17.749692
 H  -32.210139   -3.423218  -16.866465
 H  -33.383939   -4.744715  -16.817138
 H  -33.804073   -1.121337  -16.514368
 H  -32.503154    0.532554  -16.498528
 H  -34.765575    0.992974  -12.885866
 H  -34.597982    4.703681  -13.169367
 H  -37.549921    1.749031   -8.606496
 H  -36.381756    0.674028   -9.396385
 H  -37.950177    0.478244  -11.380237
 H  -39.251938   -0.139931   -8.643826
 H  -39.667134   -0.930418  -10.233491
 H  -40.286328    1.332025  -11.175145
 H  -39.867544    2.095190   -9.570278
 H  -36.834543    4.323570   -7.895052
 H  -38.398582    4.129458   -8.693943
 H  -37.692001    6.575097   -8.195620
 H  -38.196646    6.228341   -9.859249
 H  -36.550400    6.500197  -11.650902
 H  -34.847938    6.352940  -11.218204
 H  -33.236787    7.459032   -8.295023
 H  -33.319039    6.205393   -9.541157
 H  -33.821722    7.857745   -9.925949
