58 
5ktw_ligand_xtb.xyz
 C  -33.638644    0.530809  -14.687403
 C  -32.645144    2.408694  -15.798746
 C  -34.184696   -3.053286  -15.744849
 C  -33.244667    3.265626  -14.897416
 C  -35.528232   -3.346722  -16.409936
 C  -33.036537   -3.731398  -16.489921
 N  -33.957975   -1.624692  -15.681113
 C  -33.870271   -0.935543  -14.518151
 O  -33.978718   -1.465406  -13.429335
 C  -32.837956    1.041164  -15.706299
 C  -34.041794    2.762525  -13.865637
 C  -34.226566    1.385084  -13.766786
 N  -34.614152    3.653834  -12.983717
 C  -35.399381    3.395751  -11.886162
 C  -35.869182    4.377730  -10.982435
 C  -36.614856    3.675809  -10.058119
 N  -36.562296    2.375551  -10.406579
 N  -35.834518    2.198529  -11.521893
 C  -37.179595    1.234164   -9.786737
 C  -38.646689    1.113001  -10.149392
 C  -39.477900    0.053208   -9.492948
 C  -39.714543    1.496723   -9.169773
 C  -37.311244    4.300362   -8.904434
 C  -37.393814    5.804402   -9.198739
 N  -36.105790    6.326950   -9.613680
 C  -35.655926    5.857304  -10.908345
 C  -35.423315    7.139713   -8.770644
 O  -35.870252    7.443754   -7.680753
 C  -34.088559    7.668110   -9.255263
 H  -32.018683    2.812117  -16.581162
 H  -34.204738   -3.393311  -14.704200
 H  -33.089787    4.332939  -14.981820
 H  -36.330358   -2.848323  -15.871373
 H  -35.527512   -2.994500  -17.440283
 H  -35.721308   -4.415939  -16.410121
 H  -32.997431   -3.387046  -17.522167
 H  -32.088670   -3.502426  -16.009229
 H  -33.174132   -4.809122  -16.490365
 H  -33.924504   -1.125158  -16.555294
 H  -32.338249    0.382553  -16.401530
 H  -34.827909    0.983155  -12.968830
 H  -34.389131    4.626659  -13.127848
 H  -37.059053    1.299692   -8.701328
 H  -36.633800    0.361805  -10.157826
 H  -38.835929    1.310597  -11.197293
 H  -39.006985   -0.562668   -8.742299
 H  -40.208271   -0.471517  -10.088434
 H  -40.611902    1.968972   -9.539849
 H  -39.413885    1.843284   -8.191995
 H  -36.744574    4.135295   -7.983074
 H  -38.313231    3.891619   -8.772005
 H  -37.698985    6.356921   -8.309301
 H  -38.114878    5.979091  -10.004593
 H  -36.230325    6.369389  -11.699148
 H  -34.600749    6.093546  -11.051936
 H  -33.714907    8.360678   -8.505936
 H  -33.371599    6.857273   -9.367775
 H  -34.195901    8.192478  -10.201983
