58 
5ktw_ligand_ani-2x.xyz
 C  -33.758930    0.679256  -14.741387
 C  -33.068046    2.610295  -15.994777
 C  -33.960859   -3.030945  -15.547411
 C  -33.593833    3.435843  -15.009389
 C  -35.420439   -3.465456  -15.402398
 C  -33.292590   -3.677205  -16.754174
 N  -33.824704   -1.582465  -15.634641
 C  -33.886118   -0.801297  -14.520746
 O  -34.046766   -1.272896  -13.402484
 C  -33.147043    1.227790  -15.867769
 C  -34.198248    2.885879  -13.870702
 C  -34.263784    1.498853  -13.735731
 N  -34.691829    3.777443  -12.907789
 C  -35.470891    3.530487  -11.795979
 C  -35.948616    4.539172  -10.923704
 C  -36.666309    3.856959   -9.972740
 N  -36.589113    2.537095  -10.272438
 N  -35.866505    2.325993  -11.404217
 C  -37.169562    1.379926   -9.617171
 C  -38.201185    0.726831  -10.497074
 C  -39.329165   -0.043311   -9.882968
 C  -39.593101    1.283364  -10.541563
 C  -37.361892    4.480947   -8.800991
 C  -37.399578    5.999703   -9.032030
 N  -36.111190    6.497458   -9.525500
 C  -35.795392    6.034448  -10.874152
 C  -35.146987    6.750813   -8.570831
 O  -35.407507    6.708891   -7.378640
 C  -33.760002    7.113989   -9.063100
 H  -32.598305    3.047514  -16.872254
 H  -33.434588   -3.318281  -14.632533
 H  -33.531707    4.516210  -15.121261
 H  -35.864850   -2.999595  -14.518443
 H  -36.009021   -3.179433  -16.283111
 H  -35.482529   -4.553645  -15.287345
 H  -33.810362   -3.392803  -17.679375
 H  -32.245007   -3.368954  -16.830459
 H  -33.323450   -4.769720  -16.679249
 H  -33.881485   -1.147323  -16.542917
 H  -32.702624    0.591939  -16.630526
 H  -34.702662    1.049346  -12.854618
 H  -34.534258    4.753026  -13.109998
 H  -37.616414    1.710230   -8.674355
 H  -36.362257    0.679875   -9.386027
 H  -37.793251    0.350206  -11.431368
 H  -39.380120   -0.097682   -8.797626
 H  -39.668052   -0.943594  -10.387580
 H  -40.110410    1.294083  -11.496552
 H  -39.823369    2.134136   -9.900893
 H  -36.814013    4.264002   -7.874410
 H  -38.382428    4.092310   -8.673447
 H  -37.640147    6.538662   -8.114700
 H  -38.152978    6.244614   -9.789923
 H  -36.488508    6.532694  -11.570877
 H  -34.786272    6.355497  -11.148391
 H  -33.190378    7.465183   -8.202139
 H  -33.250340    6.242703   -9.487985
 H  -33.790632    7.900743   -9.823344
