91 
5kw2_ligand_ani-2x.xyz
 O   10.062470   -1.002097    1.144323
 C    5.832243   -0.032077   -1.123613
 O    8.735298    0.585667    2.000517
 C    8.949437   -0.241598    1.145175
 C    8.171389    2.857343   -0.192387
 N   -1.141678    0.125278    0.273306
 C    8.028634   -0.598240    0.002909
 C    6.997139    0.495821   -0.298391
 C    7.647037    1.696196   -0.981776
 C    6.918095    3.008618   -1.007455
 O   -3.378711   -1.899031    2.743918
 C   -3.237571   -0.986422    1.943619
 N   -3.886895   -0.954299    0.705263
 C   -4.434238    0.306814    0.195270
 C   -5.832840    0.688015    0.748837
 C   -6.872110   -0.389460    0.415312
 C   -5.784186    0.900590    2.270425
 C   -6.242065    2.007486    0.074945
 C   -4.066204   -2.127601   -0.055121
 N   -4.569285   -1.952628   -1.280136
 C   -4.751523   -3.014831   -2.078684
 C   -5.356809   -2.742026   -3.431772
 C   -4.409246   -4.301123   -1.685507
 C   -3.877220   -4.478829   -0.411555
 C   -3.700860   -3.395495    0.430041
 C   -2.423645    0.218870    2.336237
 C   -2.629664    0.779675    3.590444
 C   -1.968406    1.934694    3.998722
 C   -1.053382    2.528177    3.131271
 O   -0.358241    3.662895    3.410506
 C   -0.579373    4.269314    4.665447
 C   -0.796931    1.953834    1.884081
 C   -1.448332    0.787295    1.488877
 C   -0.393514   -1.120644    0.459653
 C   -0.426262   -1.946340   -0.822947
 C   -0.573607    0.949342   -0.789213
 C   -0.669660    0.194962   -2.109902
 C    0.047035   -1.167282   -2.064126
 C    1.540043   -1.049413   -2.162395
 O    2.192327   -0.466246   -1.108960
 C    3.520343   -0.451678   -1.418182
 C    4.535878    0.053281   -0.622172
 C    2.410955   -1.406473   -3.136110
 C    3.724744   -1.024016   -2.671616
 C    5.030747   -1.099128   -3.170262
 C    6.059401   -0.601614   -2.390862
 H   10.576054   -0.729361    1.922874
 H    8.070582    2.811114    0.888964
 H    9.080707    3.342184   -0.537013
 H    7.522644   -1.530442    0.285705
 H    8.632197   -0.837798   -0.878262
 H    6.593134    0.833079    0.665625
 H    8.203176    1.441470   -1.886032
 H    5.977314    3.050616   -0.463422
 H    6.938763    3.606258   -1.915082
 H   -3.727473    1.101692    0.444017
 H   -4.482511    0.209330   -0.890560
 H   -7.874894   -0.049810    0.697424
 H   -6.671451   -1.323008    0.952126
 H   -6.868718   -0.616326   -0.658135
 H   -6.770391    1.208489    2.635738
 H   -5.498656   -0.013592    2.804973
 H   -5.067342    1.687373    2.538839
 H   -6.291397    1.895759   -1.015447
 H   -7.227903    2.335226    0.424421
 H   -5.522782    2.803857    0.301514
 H   -4.654162   -2.195684   -4.070951
 H   -6.254462   -2.124395   -3.319928
 H   -5.627761   -3.672857   -3.935757
 H   -4.563991   -5.141222   -2.356372
 H   -3.601216   -5.473066   -0.063927
 H   -3.302008   -3.516549    1.426946
 H   -3.353990    0.309198    4.252897
 H   -2.172754    2.350847    4.977204
 H   -0.310118    3.595171    5.489516
 H    0.062818    5.150817    4.692975
 H   -1.627099    4.576694    4.782963
 H   -0.071903    2.439927    1.239004
 H    0.639455   -0.912410    0.776832
 H   -0.867616   -1.684064    1.268437
 H   -1.463663   -2.252890   -1.001000
 H    0.166030   -2.859431   -0.699993
 H    0.469842    1.230416   -0.581137
 H   -1.159986    1.871421   -0.862280
 H   -1.734019    0.019808   -2.317313
 H   -0.270091    0.808063   -2.925268
 H   -0.246405   -1.733078   -2.955721
 H    4.333574    0.497458    0.347929
 H    2.166138   -1.877785   -4.077724
 H    5.236021   -1.535030   -4.143350
 H    7.075557   -0.652745   -2.780007
