39 
5kx7_ligand_xtb.xyz
 N   34.649018   40.082441   60.931509
 C   33.762185   40.019864   61.955463
 O   34.062121   39.913033   63.130287
 C   32.355179   40.099270   61.454635
 N   32.222526   40.213971   60.140236
 C   31.008610   40.291055   59.606015
 C   29.857401   40.253730   60.403989
 C   29.998766   40.134213   61.773386
 C   31.271073   40.054358   62.322783
 C   30.971790   40.414004   58.164426
 C   29.872378   40.518024   57.287003
 N   30.276367   40.612946   56.037884
 N   31.608048   40.574104   56.073328
 C   32.076971   40.455562   57.322096
 C   36.016210   40.038453   61.030324
 C   36.833713   39.923104   62.139248
 N   38.105631   39.928761   61.679581
 N   38.170281   40.038392   60.367273
 C   36.909456   40.108073   59.933121
 C   39.300679   39.831358   62.465665
 C   36.543066   40.237208   58.521505
 N   37.599173   40.280684   57.681988
 O   35.383753   40.300059   58.137386
 C   32.371046   40.655526   54.862369
 H   34.258958   40.172325   59.991894
 H   28.880949   40.317636   59.950505
 H   29.126541   40.103170   62.411012
 H   31.438951   39.960294   63.383479
 H   28.824698   40.527279   57.512315
 H   33.123288   40.408404   57.547095
 H   36.584977   39.841766   63.175830
 H   40.151413   39.861810   61.788124
 H   39.364853   40.663915   63.168304
 H   39.314270   38.894827   63.025650
 H   37.452969   40.368598   56.691250
 H   38.528400   40.224501   58.059403
 H   31.672203   40.752237   54.034002
 H   33.033285   41.522485   54.886169
 H   32.973804   39.755557   54.729468
