39 
5kx7_ligand_dft.xyz
 N   34.686108   40.079493   60.893017
 C   33.787078   40.010551   61.907591
 O   34.078552   39.899798   63.090809
 C   32.362439   40.085626   61.418594
 N   32.207362   40.205673   60.101523
 C   30.975853   40.278594   59.587044
 C   29.845062   40.230361   60.414858
 C   30.017378   40.105234   61.786177
 C   31.303457   40.029917   62.314945
 C   30.905220   40.408960   58.133243
 C   29.793199   40.511819   57.267284
 N   30.162430   40.615746   55.998343
 N   31.508958   40.581181   56.033563
 C   31.997552   40.458990   57.281494
 C   36.059276   40.036596   61.036611
 C   36.840867   39.911457   62.167544
 N   38.131174   39.909730   61.732146
 N   38.238765   40.033630   60.413625
 C   36.981236   40.108244   59.969645
 C   39.321560   39.880672   62.554427
 C   36.653393   40.236716   58.534820
 N   37.720370   40.275597   57.703727
 O   35.489117   40.303061   58.141804
 C   32.257969   40.672498   54.800213
 H   34.326946   40.171993   59.944760
 H   28.850329   40.290356   59.985736
 H   29.152178   40.066521   62.441262
 H   31.498857   39.931712   63.376145
 H   28.739413   40.514767   57.513341
 H   33.058828   40.415929   57.488585
 H   36.569480   39.822107   63.206276
 H   40.118686   39.400926   61.986210
 H   39.627927   40.894382   62.829074
 H   39.117695   39.304403   63.458733
 H   37.566379   40.364854   56.712665
 H   38.656847   40.219106   58.073286
 H   32.030674   41.615024   54.296772
 H   33.322185   40.630069   55.037220
 H   31.994200   39.840704   54.142888
