39 
5kx7_ligand_ani-2x.xyz
 N   34.683393   40.082032   60.891607
 C   33.780103   40.023170   61.904446
 O   34.061620   39.915809   63.086673
 C   32.356982   40.105159   61.415780
 N   32.200350   40.221038   60.099535
 C   30.966847   40.299005   59.597050
 C   29.835760   40.261482   60.417703
 C   30.012279   40.140035   61.791520
 C   31.299763   40.059214   62.313603
 C   30.904929   40.425236   58.135044
 C   29.804876   40.532096   57.250700
 N   30.204238   40.627736   55.992435
 N   31.540181   40.585479   56.041605
 C   32.009410   40.464301   57.305403
 C   36.065235   40.030371   61.049602
 C   36.857624   39.913969   62.168354
 N   38.138006   39.915419   61.717060
 N   38.232350   40.024455   60.396131
 C   36.969101   40.096139   59.965415
 C   39.327014   39.815266   62.536503
 C   36.600492   40.226501   58.542585
 N   37.630961   40.268927   57.678551
 O   35.419703   40.290692   58.185214
 C   32.328252   40.665207   54.830284
 H   34.352835   40.172412   59.931631
 H   28.837387   40.325531   59.994271
 H   29.149489   40.108633   62.451294
 H   31.500745   39.963499   63.376107
 H   28.744951   40.543472   57.473192
 H   33.071882   40.414614   57.535330
 H   36.609407   39.832621   63.218716
 H   40.184441   39.826797   61.863945
 H   39.383676   40.659552   63.230022
 H   39.313720   38.884110   63.110478
 H   37.437084   40.359735   56.694148
 H   38.582590   40.216033   58.009328
 H   31.635027   40.764651   53.995403
 H   32.992673   41.532770   54.869148
 H   32.929625   39.759831   54.710183
