38 
5l13_ligand_dft.xyz
 C   -0.032132   -1.144690   -0.084685
 C   -1.027384    1.058774   -0.155999
 C   -4.411197   -0.153432    0.176010
 C    2.330265   -1.510468   -0.234514
 C    1.470764    0.788150   -0.332079
 C    3.970767    0.354814   -0.523572
 C    4.639069    0.611954    0.834892
 C    6.109841    0.995338    0.692787
 O    3.219094   -2.327402   -0.211171
 O    1.047522   -1.971913   -0.105353
 C    2.527833   -0.059582   -0.386608
 C    1.624906    2.283047   -0.409806
 C    0.119325    0.253274   -0.189247
 C   -2.275815    0.466402   -0.024184
 C   -3.639188    0.951697    0.044995
 C   -4.057388    2.385096   -0.019200
 C   -5.876818   -0.362743    0.299143
 O   -3.658381   -1.309608    0.196873
 C   -2.364632   -0.929628    0.075216
 C   -1.267796   -1.767888    0.049493
 H   -0.942779    2.137352   -0.235115
 H    4.509762   -0.449835   -1.032024
 H    4.059420    1.245464   -1.155017
 H    4.547224   -0.294218    1.444487
 H    4.093907    1.404949    1.363657
 H    6.673860    0.198988    0.194706
 H    6.224822    1.908756    0.097086
 H    6.570241    1.172222    1.670093
 H    2.668750    2.590861   -0.461616
 H    1.106923    2.682303   -1.289493
 H    1.181866    2.756903    0.473182
 H   -3.737818    2.845192   -0.961466
 H   -5.142576    2.496052    0.054385
 H   -3.606655    2.962166    0.796583
 H   -6.404102    0.593260    0.274888
 H   -6.251059   -0.985585   -0.520394
 H   -6.119870   -0.868604    1.239709
 H   -1.340321   -2.845529    0.127706
