29 
5l26_ligand_aiqm1.xyz
 N   -1.224709    0.168649    0.302824
 C   -2.387793   -0.519531    0.026495
 N   -3.483956    0.266040   -0.201574
 C   -3.543136    1.667808   -0.253747
 C   -2.259228    2.299820   -0.015295
 C   -1.170918    1.542687    0.251268
 O   -2.430423   -1.742838   -0.020078
 O   -4.595120    2.224788   -0.486867
 C   -0.040453   -0.650511    0.641087
 C    0.545863   -1.385824   -0.574280
 C    2.039614   -1.388828   -0.266317
 C    2.234139   -0.112973    0.550267
 O    0.083223   -2.707865   -0.703569
 O    2.391630   -2.480405    0.559265
 O    0.961504    0.180857    1.155333
 C    2.708916    1.082759   -0.244277
 O    1.799898    1.310616   -1.316220
 H   -4.341769   -0.228162   -0.396661
 H   -2.201745    3.375198   -0.054588
 H   -0.192311    1.960804    0.431115
 H   -0.359809   -1.377056    1.393066
 H    0.353974   -0.794832   -1.475154
 H    2.639305   -1.391786   -1.179952
 H    2.943938   -0.287705    1.358874
 H   -0.872871   -2.679986   -0.552429
 H    1.809424   -3.204599    0.309699
 H    2.756938    1.954977    0.413333
 H    3.714333    0.876119   -0.622120
 H    2.121443    2.041779   -1.842600
