52 
5l2m_ligand_xtb.xyz
 C   34.077477  -16.280525   15.111010
 C   32.097715  -16.442010   13.811496
 C   32.633811  -17.473944   13.007293
 C   30.566336  -17.537401   11.793811
 C   29.503284  -17.845849   10.878471
 C   28.481558  -17.009543   11.201403
 C   30.063374  -16.502117   12.615595
 C   30.813824  -15.942756   13.627982
 O   39.234055  -17.808828   13.982284
 C   38.467157  -17.106546   14.621041
 N   38.797486  -16.600227   15.826896
 C   40.144335  -16.796252   16.327230
 C   40.896572  -15.466396   16.354713
 C   40.131082  -14.450104   17.198603
 C   38.703105  -14.317381   16.675827
 C   38.027089  -15.690464   16.646773
 C   37.070324  -16.817220   14.095568
 C   36.043829  -17.742203   14.769560
 C   34.654806  -17.375198   14.334543
 O   34.657898  -15.700741   16.003193
 O   32.819703  -15.874708   14.808047
 C   33.980856  -17.923581   13.291988
 C   34.569166  -18.982392   12.412219
 C   31.848100  -18.018946   11.990805
 C   29.542976  -18.876339    9.805134
 C   27.123268  -16.851099   10.617248
 O   28.805122  -16.189782   12.251227
 H   30.442687  -15.155042   14.261012
 H   40.641286  -17.511193   15.669703
 H   40.087288  -17.215173   17.338476
 H   40.994560  -15.095323   15.332550
 H   41.898102  -15.622549   16.758058
 H   40.635038  -13.482184   17.171272
 H   40.106101  -14.786341   18.238175
 H   38.720722  -13.905804   15.664334
 H   38.123434  -13.643860   17.307888
 H   38.001656  -16.097749   17.665294
 H   37.000215  -15.598729   16.301294
 H   37.085154  -17.015503   13.022226
 H   36.793838  -15.775040   14.250719
 H   36.100320  -17.613202   15.851786
 H   36.280395  -18.780062   14.539793
 H   35.607920  -19.174836   12.653725
 H   34.008729  -19.910862   12.516090
 H   34.515524  -18.667104   11.371523
 H   32.225017  -18.810308   11.365145
 H   30.346827  -18.658479    9.102963
 H   29.729461  -19.860212   10.233932
 H   28.601814  -18.901883    9.263884
 H   27.186477  -16.563257    9.568815
 H   26.565322  -17.783957   10.682408
 H   26.588904  -16.079595   11.164175
