52 
5l2m_ligand_aiqm1.xyz
 C   34.133593  -16.226385   14.998586
 C   32.118753  -16.410330   13.724561
 C   32.625984  -17.493348   12.980555
 C   30.544116  -17.555609   11.780539
 C   29.455956  -17.876118   10.881000
 C   28.468692  -16.996902   11.171746
 C   30.092349  -16.475395   12.554515
 C   30.852255  -15.872374   13.539471
 O   39.359276  -17.562905   13.935335
 C   38.533637  -17.006397   14.647361
 N   38.796371  -16.688306   15.945827
 C   40.172400  -16.825037   16.415213
 C   40.896276  -15.480054   16.363464
 C   40.121043  -14.429269   17.159567
 C   38.662260  -14.355740   16.706872
 C   38.016991  -15.743322   16.744665
 C   37.140265  -16.718060   14.119121
 C   36.105273  -17.709349   14.679422
 C   34.694270  -17.359410   14.257278
 O   34.718739  -15.622401   15.864894
 O   32.868944  -15.810615   14.694134
 C   33.978513  -17.961830   13.274527
 C   34.504749  -19.100363   12.443645
 C   31.817273  -18.068653   11.992544
 C   29.464639  -18.966367    9.853649
 C   27.103691  -16.781312   10.627523
 O   28.831884  -16.128557   12.192282
 H   30.504733  -15.040291   14.134024
 H   40.659983  -17.574536   15.797849
 H   40.139955  -17.184444   17.448647
 H   40.992854  -15.169229   15.319817
 H   41.906570  -15.594009   16.763355
 H   40.600093  -13.450582   17.072160
 H   40.147136  -14.697385   18.221597
 H   38.607878  -13.961364   15.687838
 H   38.093447  -13.679126   17.346563
 H   38.020283  -16.110765   17.775673
 H   36.984602  -15.705487   16.417689
 H   37.192513  -16.812608   13.033887
 H   36.835899  -15.699345   14.357843
 H   36.150060  -17.687737   15.768783
 H   36.375413  -18.720774   14.378269
 H   35.514235  -19.385493   12.723344
 H   33.862141  -19.977288   12.537390
 H   34.516835  -18.825438   11.387864
 H   32.174041  -18.900013   11.401242
 H   30.275618  -18.815674    9.138261
 H   29.621003  -19.939081   10.324473
 H   28.525864  -19.000820    9.302993
 H   27.007534  -15.774001   10.220952
 H   26.899363  -17.498878    9.835327
 H   26.354856  -16.902024   11.411064
