34 
5l2o_ligand_ani-2x.xyz
 O    7.334448  -11.265043  -32.119825
 C    7.318669  -12.446172  -32.348188
 O    6.623782  -12.880791  -33.456667
 C    6.547182  -14.195427  -33.798922
 C    7.978377  -13.480635  -31.546964
 C    7.921832  -14.786117  -31.857345
 C    8.610570  -15.828072  -31.014135
 C    7.172028  -15.189432  -33.042112
 C    7.025316  -16.510248  -33.488383
 C    6.301716  -16.819487  -34.620513
 C    5.675091  -15.806974  -35.388722
 C    5.814693  -14.486537  -34.940436
 N    4.989079  -16.103704  -36.554221
 C    4.705750  -17.484622  -36.913769
 C    3.627762  -18.183310  -36.078426
 C    4.298708  -15.055161  -37.287730
 C    2.965788  -14.598012  -36.688775
 H    8.520248  -13.118647  -30.678683
 H    9.349723  -16.378258  -31.603505
 H    9.124274  -15.362909  -30.168994
 H    7.888195  -16.549244  -30.621092
 H    7.495499  -17.313040  -32.927958
 H    6.215325  -17.860273  -34.907818
 H    5.346087  -13.654119  -35.451374
 H    5.640368  -18.058536  -36.878501
 H    4.397493  -17.481451  -37.965097
 H    3.891852  -18.218039  -35.016122
 H    2.662749  -17.672340  -36.167739
 H    3.494542  -19.213586  -36.427199
 H    4.123275  -15.435804  -38.300609
 H    4.977659  -14.202423  -37.404677
 H    2.241999  -15.420287  -36.660419
 H    3.082827  -14.219134  -35.667797
 H    2.535793  -13.796365  -37.299784
