34 
5l2o_ligand_xtb.xyz
 O    7.210819  -11.313349  -32.010837
 C    7.234592  -12.490828  -32.281075
 O    6.543063  -12.905735  -33.390692
 C    6.511707  -14.205375  -33.767944
 C    7.933969  -13.508293  -31.530407
 C    7.921846  -14.817266  -31.877887
 C    8.656309  -15.843496  -31.076638
 C    7.182665  -15.206714  -33.045194
 C    7.071042  -16.516437  -33.530112
 C    6.342709  -16.811445  -34.651620
 C    5.668336  -15.808356  -35.384706
 C    5.772755  -14.499321  -34.902799
 N    4.974190  -16.103891  -36.524098
 C    4.643699  -17.471300  -36.865711
 C    3.602638  -18.094723  -35.933835
 C    4.371544  -15.059479  -37.322886
 C    2.987305  -14.628501  -36.834322
 H    8.471952  -13.154444  -30.665158
 H    9.397590  -16.346837  -31.695782
 H    9.161186  -15.378018  -30.234670
 H    7.964159  -16.594806  -30.698891
 H    7.572091  -17.316741  -33.008177
 H    6.307037  -17.838219  -34.973892
 H    5.283108  -13.668067  -35.378939
 H    5.553179  -18.080897  -36.865706
 H    4.255967  -17.474438  -37.886482
 H    3.945335  -18.069339  -34.902918
 H    2.662485  -17.553455  -35.992313
 H    3.425264  -19.128741  -36.218579
 H    4.292154  -15.426642  -38.350344
 H    5.044739  -14.199405  -37.340514
 H    2.270315  -15.437588  -36.946956
 H    3.023803  -14.343118  -35.786430
 H    2.639145  -13.778936  -37.415981
