20 
5l4f_ligand_dft.xyz
 O   -2.523891   -1.920765    0.104444
 C    0.047931    3.572640   -0.090509
 C    0.013897    2.067072   -0.046986
 C    1.199274    1.325717   -0.014929
 C    1.190974   -0.055756   -0.000337
 C   -0.005082   -0.803584    0.019547
 C   -1.190644   -0.034665    0.002804
 C   -1.176176    1.360949   -0.038390
 N   -2.488660   -0.684231    0.034414
 O   -3.489751    0.002160   -0.007835
 O    0.035682   -2.121786    0.091336
 N    2.493945   -0.729368   -0.012006
 O    3.415828   -0.149338    0.544998
 O    2.582598   -1.792591   -0.596219
 H    0.637909    3.976682    0.738515
 H    0.500408    3.928802   -1.022189
 H   -0.958953    3.992657   -0.024379
 H    2.162932    1.824358   -0.000394
 H   -2.129984    1.875377   -0.055862
 H   -0.894065   -2.438370    0.126479
