33 
5l6o_ligand_aiqm1.xyz
 C   10.040008    0.744835   -5.124722
 C   11.116536    1.467047   -5.622779
 C   12.368001    1.413686   -4.996782
 C   15.504114    3.240217   -6.070838
 C   15.048728    3.940411   -7.215911
 C   15.901213    4.746097   -7.924494
 C   17.253367    4.892630   -7.523682
 C   17.709011    4.217312   -6.411835
 C   16.845305    3.382759   -5.669280
 C   16.506121    1.978705   -3.926748
 C   18.144004    5.788097   -8.336563
 C   19.584126    5.941556   -7.906071
 C   10.193468   -0.045912   -3.989687
 O   17.709354    6.367284   -9.309778
 N   17.352895    2.736822   -4.573888
 N   15.196029    1.750716   -4.199559
 C   14.700027    2.368401   -5.251907
 N   13.391178    2.188161   -5.588974
 C   12.527695    0.620106   -3.855205
 C   11.436355   -0.098221   -3.368927
 H    9.084911    0.805058   -5.628787
 H   10.986663    2.080833   -6.508593
 H   14.022103    3.855864   -7.556005
 H   15.560124    5.282659   -8.798490
 H   18.731016    4.296451   -6.066142
 H   16.885881    1.458131   -3.056761
 H   20.083914    6.617324   -8.595469
 H   19.639675    6.340207   -6.892679
 H   20.088048    4.974572   -7.906306
 H    9.359686   -0.610383   -3.597020
 H   13.090928    2.691900   -6.401246
 H   13.482753    0.566073   -3.359579
 H   11.566864   -0.709997   -2.485596
