35 
5l6p_ligand_ani-2x.xyz
 C   11.696430   -3.228194   -6.101313
 C   12.660465   -2.350849   -6.586976
 C   12.601190   -1.930710   -7.918643
 C   15.519888    0.235451   -8.976023
 C   14.926635    1.103128   -9.925424
 C   15.662271    2.036691  -10.610543
 C   17.052900    2.142233  -10.362466
 C   17.647670    1.319174   -9.432447
 C   16.901512    0.363040   -8.717640
 C   16.790331   -1.272116   -7.162892
 C   17.516245    4.007628  -11.980140
 C   18.694612    4.831658  -12.468041
 C   10.672300   -3.698738   -6.916698
 O   16.382381    4.169145  -12.390754
 N   17.868933    3.072479  -11.036505
 N   17.543737   -0.413163   -7.792578
 N   15.461506   -1.499569   -7.309422
 C   14.836973   -0.785515   -8.221517
 N   13.509194   -1.007418   -8.483524
 C   11.561776   -2.390788   -8.734951
 C   10.611635   -3.274276   -8.240030
 H   11.754812   -3.551009   -5.064527
 H   13.460088   -1.993416   -5.947964
 H   13.857068    1.062336  -10.121277
 H   15.200882    2.690822  -11.336964
 H   18.708717    1.378289   -9.210079
 H   17.281521   -1.892277   -6.415340
 H   18.335016    5.545980  -13.207670
 H   19.162433    5.374013  -11.639449
 H   19.456820    4.191407  -12.924789
 H    9.929379   -4.386782   -6.523052
 H   18.843994    3.040929  -10.778237
 H   13.172485   -0.570665   -9.326729
 H   11.504999   -2.059748   -9.770222
 H    9.817204   -3.626569   -8.893372
