65 
5l8c_ligand_dft.xyz
 O   -6.600766   -1.993029   -0.493234
 C   -5.556921   -1.364468   -0.459491
 N   -5.479058   -0.100013    0.086587
 C   -6.696069    0.589699    0.534215
 C   -7.157853    1.599767   -0.514299
 C   -6.467257    1.226071    1.901834
 N   -4.372243    0.714530    0.000206
 C   -4.250692   -1.866083   -1.059004
 C   -3.065665   -1.319077   -0.256831
 C   -3.003409   -1.939019    1.154154
 C   -3.233390   -3.425107    1.125547
 C   -3.768528   -4.065220    0.087611
 C   -4.222237   -3.389937   -1.177484
 C   -3.217251    0.177974   -0.167785
 C   -2.050869    1.084957   -0.230407
 C   -2.223867    2.460446   -0.397063
 C   -1.135602    3.319650   -0.431300
 C   -0.745593    0.602856   -0.099563
 C    0.367974    1.440052   -0.121578
 C    0.162930    2.822191   -0.294036
 O    1.272593    3.598703   -0.334755
 C    1.119266    4.981978   -0.566726
 C    1.726037    0.853848    0.018856
 C    2.077304   -0.276351   -0.728102
 C    3.321324   -0.872535   -0.579298
 C    4.253383   -0.341660    0.311667
 C    3.906308    0.779889    1.069863
 C    2.659300    1.370579    0.924083
 C    5.581108   -1.021447    0.419238
 O    5.727088   -2.205425    0.119469
 N    6.616446   -0.259275    0.864494
 C    7.951261   -0.804036    1.042840
 C    8.764048   -0.859521   -0.260667
 O    9.729744   -0.140039   -0.446943
 N    8.305597   -1.773218   -1.151276
 H   -7.441032   -0.202755    0.620919
 H   -7.348162    1.101494   -1.469896
 H   -6.394874    2.370136   -0.665757
 H   -8.083249    2.086534   -0.189993
 H   -5.698449    2.002364    1.844577
 H   -6.147277    0.474328    2.630339
 H   -7.395333    1.681248    2.262078
 H   -4.212471   -1.426814   -2.066832
 H   -2.150036   -1.583611   -0.794700
 H   -3.749453   -1.460839    1.804458
 H   -2.029139   -1.714305    1.604760
 H   -2.949487   -3.982063    2.015719
 H   -3.901699   -5.143698    0.135689
 H   -5.226930   -3.735958   -1.440292
 H   -3.560349   -3.681797   -2.003972
 H   -3.228421    2.855408   -0.502519
 H   -1.309093    4.379465   -0.575124
 H   -0.569315   -0.456958    0.058346
 H    0.632180    5.174384   -1.530540
 H    2.128258    5.394828   -0.584870
 H    0.545419    5.463904    0.234663
 H    1.368669   -0.681587   -1.444917
 H    3.589616   -1.753325   -1.153056
 H    4.594009    1.176945    1.811726
 H    2.398958    2.233897    1.525880
 H    6.516385    0.743962    0.861475
 H    8.499430   -0.171412    1.741682
 H    7.849132   -1.807224    1.466255
 H    8.735110   -1.811155   -2.062810
 H    7.442901   -2.274223   -0.967295
