23 
5l8n_ligand_ani-2x.xyz
 C   59.810770   -5.857800   57.119764
 C   58.907708   -6.425766   58.030985
 C   57.929100   -7.325416   57.635408
 C   57.854182   -7.666146   56.289970
 C   56.801749   -8.640286   55.833747
 C   60.321353   -5.047060   59.018732
 C   58.761069   -7.100516   55.352182
 C   58.677595   -7.470649   53.893554
 C   59.732484   -6.201654   55.771990
 N   59.236181   -5.859667   59.258165
 N   60.692622   -5.001468   57.769676
 N   60.953756   -4.393996   60.063608
 H   57.230145   -7.760214   58.347881
 H   57.246203   -9.527240   55.367994
 H   56.192424   -8.976280   56.676464
 H   56.129754   -8.191881   55.093128
 H   58.817917   -8.546606   53.741363
 H   57.703220   -7.209125   53.466022
 H   59.445378   -6.949677   53.315909
 H   60.431224   -5.765895   55.060105
 H   58.994340   -6.232917   60.164505
 H   61.662363   -3.762261   59.710502
 H   60.326463   -3.916481   60.698347
