69 
5l8o_ligand_aiqm1.xyz
 C   -3.775660    0.032120   -1.980412
 C   -3.959384   -1.481898   -1.941571
 C   -4.857498   -1.867046   -0.775492
 O   -5.002632   -3.281659   -0.650881
 C   -4.250977   -1.369855    0.519527
 C   -4.035211    0.149170    0.508997
 C   -3.465396    0.650712    1.842776
 C   -1.993279    0.306886    2.060643
 O   -1.782524   -1.092114    2.252499
 C   -1.138160    0.732910    0.872240
 C   -1.694470    0.183605   -0.464269
 C   -3.171207    0.626540   -0.689032
 C   -0.765977    0.581784   -1.631103
 C    0.699487    0.176220   -1.426759
 O    0.866318   -1.238634   -1.506085
 C    1.232057    0.764347   -0.112339
 C    0.309423    0.286716    1.027392
 C    1.057641    0.671472    2.307883
 C    2.549590    0.506219    1.918185
 C    2.589879    0.215397    0.388815
 C    1.293978    2.304814   -0.224877
 C   -3.291800    2.160950   -0.831385
 C    3.863950    0.748944   -0.274207
 C    3.854041    0.565692   -1.796879
 C    5.134752    0.132132    0.332544
 C    5.280396   -1.366407    0.091061
 O    6.659684   -3.248357    0.436483
 C    6.565559   -1.915156    0.650875
 O    7.424550   -1.292241    1.220371
 H   -3.181294    0.330587   -2.846785
 H   -4.761419    0.494023   -2.117499
 H   -2.996231   -1.985889   -1.816230
 H   -4.392305   -1.836267   -2.883072
 H   -5.849511   -1.412453   -0.925554
 H   -5.383561   -3.614682   -1.466169
 H   -3.308091   -1.895939    0.667071
 H   -4.907567   -1.640678    1.353639
 H   -5.027456    0.606465    0.384858
 H   -4.049674    0.240200    2.673549
 H   -3.570318    1.737896    1.899128
 H   -1.660919    0.839490    2.962414
 H   -2.331316   -1.372146    2.988143
 H   -1.167456    1.827570    0.845072
 H   -1.684954   -0.915664   -0.390386
 H   -1.109126    0.120114   -2.560527
 H   -0.807695    1.663893   -1.782443
 H    1.271627    0.561936   -2.270568
 H    0.258208   -1.649264   -0.886370
 H    0.313586   -0.812281    0.989441
 H    0.835408    1.707762    2.584773
 H    0.778270    0.039504    3.151261
 H    3.113816    1.417757    2.134817
 H    3.017245   -0.300366    2.485208
 H    2.553829   -0.873516    0.246983
 H    1.908665    2.608177   -1.075338
 H    0.315445    2.768867   -0.359887
 H    1.742739    2.752778    0.663405
 H   -4.349073    2.443312   -0.837571
 H   -2.808341    2.719302   -0.028176
 H   -2.858929    2.501023   -1.774763
 H    3.927246    1.823025   -0.061603
 H    3.478672   -0.421216   -2.073159
 H    3.224926    1.304357   -2.293791
 H    4.859798    0.671819   -2.211352
 H    6.005354    0.637615   -0.098812
 H    5.182611    0.329936    1.405809
 H    5.257303   -1.603081   -0.975251
 H    4.460997   -1.933742    0.538962
 H    7.502363   -3.523688    0.818772
