82 
5l8y_ligand_xtb.xyz
 O   -5.275468    3.009489    0.510406
 C   -4.349929    2.227114    0.583163
 N   -4.516565    0.886739    0.394261
 C   -5.843264    0.322757    0.159754
 C   -5.886727   -0.216947   -1.274652
 C   -7.040931   -1.176529   -1.570497
 C   -8.371119   -0.802326   -0.912800
 C   -8.529258   -1.401940    0.484490
 C   -7.663555   -0.750743    1.560121
 C   -6.172076   -0.718271    1.233019
 N   -3.527460   -0.029958    0.472757
 C   -2.933282    2.613827    0.987004
 C   -1.924216    1.769019    0.208130
 C   -1.989620    2.108249   -1.288993
 C   -1.967748    3.588027   -1.514470
 C   -2.279123    4.469916   -0.580726
 C   -2.690988    4.111604    0.811281
 C   -2.297295    0.321427    0.406096
 C   -1.294548   -0.733601    0.476718
 C   -1.666428   -2.017672    0.877861
 C   -0.743959   -3.040143    0.944302
 C    0.041191   -0.516327    0.142178
 C    0.985608   -1.528522    0.206877
 C    0.590725   -2.816336    0.615604
 O    1.554451   -3.772462    0.634011
 C    1.200359   -5.093014    0.966831
 C    2.381173   -1.243301   -0.165732
 C    3.444618   -1.646900    0.637679
 C    4.744785   -1.360371    0.276228
 C    5.015262   -0.648804   -0.890964
 C    3.955392   -0.247229   -1.700757
 C    2.656593   -0.543562   -1.339730
 C    6.431201   -0.371870   -1.232843
 O    7.343163   -1.119735   -0.892205
 N    6.655317    0.756631   -1.941824
 C    7.993372    1.223532   -2.256783
 C    8.644289    1.744775   -0.960519
 O    8.569017    2.905797   -0.619412
 N    9.251333    0.769031   -0.261675
 C    9.580360    0.905837    1.139237
 C    8.443486    0.346011    2.013106
 O    8.244572   -1.030978    1.844122
 H   -6.527845    1.169885    0.261349
 H   -5.941565    0.639396   -1.951495
 H   -4.944366   -0.736630   -1.468989
 H   -6.770356   -2.185760   -1.254771
 H   -7.170868   -1.208137   -2.654537
 H   -9.184035   -1.187885   -1.533081
 H   -8.479485    0.281896   -0.871713
 H   -8.297912   -2.469087    0.433968
 H   -9.574425   -1.310943    0.790844
 H   -8.007172    0.272212    1.730815
 H   -7.807453   -1.302810    2.492277
 H   -5.823790   -1.702402    0.921420
 H   -5.626286   -0.449361    2.140571
 H   -2.857640    2.358980    2.054790
 H   -0.922317    1.985218    0.587019
 H   -1.153991    1.635537   -1.811769
 H   -2.909104    1.695528   -1.720788
 H   -1.694413    3.910289   -2.509474
 H   -2.243781    5.528814   -0.795256
 H   -1.921706    4.452951    1.511249
 H   -3.616246    4.641238    1.054037
 H   -2.697246   -2.196271    1.136965
 H   -1.071880   -4.018509    1.257916
 H    0.373838    0.460562   -0.173379
 H    2.120534   -5.669475    0.886169
 H    0.457544   -5.498148    0.272682
 H    0.819445   -5.162570    1.990793
 H    3.248701   -2.182842    1.552357
 H    5.567237   -1.678047    0.899595
 H    4.141879    0.265212   -2.634040
 H    1.842159   -0.249863   -1.985959
 H    5.906560    1.423828   -2.034281
 H    8.570040    0.392618   -2.669908
 H    7.920740    2.030515   -2.984736
 H    9.104918   -0.182887   -0.580984
 H   10.504290    0.358763    1.339560
 H    9.719752    1.966744    1.351940
 H    8.694639    0.488352    3.066747
 H    7.521542    0.905881    1.792975
 H    7.966956   -1.209631    0.928768
