38 
5l98_ligand_xtb.xyz
 C   -0.746678   -1.596045   -1.958846
 C   -0.596642   -0.950025   -0.572723
 N   -1.604104    0.071030   -0.371918
 C   -2.819827   -0.127961    0.220114
 C   -3.612438    0.981547    0.597888
 C   -3.132375    2.388783    0.387471
 N   -4.801794    0.849717    1.147934
 C   -5.295974   -0.360113    1.364028
 C   -4.611141   -1.512647    1.025147
 C   -3.360728   -1.396260    0.443057
 C    0.779036   -0.346016   -0.420689
 C    1.676759   -0.866563    0.495971
 C    2.947205   -0.324385    0.640388
 C    3.336747    0.749605   -0.164214
 O    4.593732    1.294040   -0.096479
 C    5.516362    0.478868    0.590739
 C    4.892521   -0.051516    1.880805
 O    3.780695   -0.866722    1.584572
 C    2.428627    1.285273   -1.068383
 C    1.164368    0.746567   -1.192093
 H   -0.610196   -0.851617   -2.738283
 H   -0.002343   -2.377647   -2.087386
 H   -1.738403   -2.027959   -2.065047
 H   -0.720814   -1.727322    0.192062
 H   -1.275290    1.020562   -0.409311
 H   -2.968369    2.590076   -0.671251
 H   -2.201763    2.570333    0.926693
 H   -3.890705    3.070995    0.759807
 H   -6.275372   -0.391687    1.821110
 H   -5.041702   -2.485993    1.205733
 H   -2.815774   -2.284941    0.162892
 H    1.411585   -1.702238    1.124612
 H    6.387532    1.101943    0.797638
 H    5.810753   -0.369400   -0.042724
 H    5.595569   -0.674707    2.435165
 H    4.578975    0.796673    2.505047
 H    2.742984    2.122193   -1.671146
 H    0.478881    1.173657   -1.908580
