68 
5l9h_ligand_xtb.xyz
 C  142.878159   11.638463    0.592010
 O  142.177961   12.429647   -0.334854
 C  141.306495   11.817779   -1.180017
 C  141.041032   10.459737   -1.213420
 C  140.124189    9.933244   -2.109749
 C  139.450965   10.758947   -3.000296
 C  138.457697   10.276985   -3.934457
 N  137.778995   11.099382   -4.663964
 N  136.914921   10.414943   -5.455337
 C  136.036163   11.146158   -6.349060
 C  136.348382   10.800583   -7.801930
 C  134.577172   10.848681   -6.015373
 C  136.992493    9.066409   -5.288284
 O  136.343092    8.224283   -5.866027
 C  138.061274    8.842328   -4.210736
 C  137.389968    8.132024   -3.031927
 C  139.193045    8.005195   -4.810021
 C  139.734657   12.134454   -2.983827
 C  140.635472   12.671507   -2.090134
 O  140.950829   13.989937   -1.985231
 C  140.379300   14.893919   -2.907824
 C  140.752920   16.304201   -2.455627
 C  140.526490   17.358445   -3.538292
 C  139.113824   17.333729   -4.119960
 O  139.074120   16.299837   -5.085964
 C  137.908244   15.964350   -5.679197
 C  136.677405   16.569635   -5.435826
 C  135.546509   16.130348   -6.098277
 C  135.620344   15.090676   -7.020767
 C  134.459259   14.592052   -7.714727
 N  133.198824   15.109045   -7.677933
 N  132.426325   14.336218   -8.452493
 N  133.161324   13.421028   -8.920954
 N  134.410923   13.532969   -8.501916
 C  136.860879   14.496096   -7.275806
 C  137.983532   14.921821   -6.610979
 H  143.504386   12.329519    1.154057
 H  142.198132   11.125818    1.280606
 H  143.513993   10.899286    0.093256
 H  141.544805    9.789743   -0.534826
 H  139.943671    8.872244   -2.092478
 H  136.255717   12.202397   -6.159311
 H  137.394611   11.001150   -8.024266
 H  136.147676    9.747418   -7.979377
 H  135.721094   11.399627   -8.456497
 H  134.349624   11.137101   -4.990924
 H  133.931607   11.399967   -6.692682
 H  134.382083    9.786452   -6.134859
 H  138.118858    7.787053   -2.304073
 H  136.690136    8.800619   -2.533665
 H  136.839683    7.272360   -3.410924
 H  139.944122    7.765946   -4.061886
 H  138.777083    7.081278   -5.207125
 H  139.674616    8.546286   -5.622722
 H  139.212852   12.748850   -3.697819
 H  139.289233   14.775869   -2.929537
 H  140.769540   14.700783   -3.915803
 H  141.806791   16.297835   -2.174527
 H  140.175173   16.553473   -1.563729
 H  141.223212   17.196598   -4.362086
 H  140.717993   18.345618   -3.116440
 H  138.883497   18.294093   -4.601784
 H  138.377781   17.152297   -3.326449
 H  136.589655   17.382610   -4.732380
 H  134.602115   16.608433   -5.880710
 H  132.831670   15.913825   -7.197759
 H  136.913514   13.704205   -8.004876
 H  138.943893   14.466194   -6.790233
