68 
5l9h_ligand_dft.xyz
 C  142.198706   11.782680    1.013122
 O  141.718982   12.532958   -0.078738
 C  140.992395   11.884170   -1.016105
 C  140.676682   10.533877   -0.995030
 C  139.917146    9.961790   -2.019969
 C  139.461162   10.734293   -3.080052
 C  138.656991   10.180169   -4.178929
 N  138.198746   10.952570   -5.107577
 N  137.516172   10.184787   -6.034669
 C  136.779461   10.842822   -7.112461
 C  137.175792   10.273755   -8.474055
 C  135.272835   10.761917   -6.859933
 C  137.476125    8.860374   -5.703863
 O  136.911407    7.966959   -6.309572
 C  138.277832    8.729957   -4.403530
 C  137.335053    8.153084   -3.335053
 C  139.479591    7.809307   -4.662667
 C  139.787256   12.103596   -3.101801
 C  140.537083   12.681965   -2.095165
 O  140.893106   13.987451   -2.051205
 C  140.460273   14.798379   -3.128703
 C  140.951293   16.215700   -2.875611
 C  140.840795   17.130072   -4.101294
 C  139.430954   17.327797   -4.635455
 O  138.997992   16.093979   -5.192920
 C  137.691080   15.927231   -5.496573
 C  136.781365   16.977325   -5.637721
 C  135.460385   16.700138   -5.974796
 C  135.029942   15.387957   -6.161301
 C  133.653205   15.061124   -6.526443
 N  132.577887   15.863628   -6.404510
 N  131.484636   15.210574   -6.840635
 N  131.894567   14.051290   -7.214389
 N  133.228017   13.920312   -7.037974
 C  135.950637   14.343693   -6.005279
 C  137.266988   14.604633   -5.680266
 H  142.749933   12.484505    1.639796
 H  141.375876   11.346438    1.594325
 H  142.873887   10.981511    0.685346
 H  141.016482    9.904477   -0.180898
 H  139.693354    8.903813   -1.962994
 H  137.105403   11.885537   -7.060089
 H  138.253294   10.374480   -8.636912
 H  136.907557    9.216521   -8.539155
 H  136.651820   10.818601   -9.265642
 H  135.030266   11.115454   -5.852147
 H  134.724746   11.384272   -7.573699
 H  134.930107    9.727189   -6.951926
 H  137.862246    7.934079   -2.403142
 H  136.519640    8.848253   -3.112228
 H  136.900921    7.225124   -3.719602
 H  140.052023    7.631969   -3.748209
 H  139.113494    6.850799   -5.043236
 H  140.153355    8.242292   -5.408589
 H  139.435153   12.693658   -3.937144
 H  139.367617   14.765105   -3.201496
 H  140.867349   14.414908   -4.074815
 H  142.002133   16.159312   -2.571522
 H  140.400361   16.645895   -2.030428
 H  141.463682   16.741947   -4.916493
 H  141.239062   18.118341   -3.843558
 H  139.421277   18.108750   -5.407689
 H  138.745887   17.629410   -3.829931
 H  137.093736   18.007046   -5.508678
 H  134.776266   17.533480   -6.113935
 H  132.488557   16.791181   -6.020231
 H  135.609848   13.322980   -6.133307
 H  137.974127   13.790360   -5.551652
