30 
5lcf_ligand_xtb.xyz
 O  -27.734006   90.584014   19.540241
 C  -28.905959   90.854325   19.638623
 O  -29.545894   90.709562   20.778361
 C  -29.653612   91.369743   18.427391
 C  -28.884779   91.486946   17.268708
 C  -29.408325   91.941775   16.071607
 C  -30.743947   92.304114   15.982038
 C  -31.518270   92.194495   17.117743
 C  -32.965616   92.514217   17.291608
 N  -33.219379   92.203255   18.685523
 C  -32.101468   91.749885   19.318140
 O  -32.026950   91.414081   20.495675
 C  -31.001502   91.736827   18.331810
 C  -34.498985   92.377441   19.242198
 C  -35.540648   92.855574   18.446055
 C  -36.804792   93.032597   18.977624
 C  -37.058494   92.739326   20.305596
 C  -36.028944   92.264960   21.099152
 C  -34.760802   92.083600   20.579926
 H  -30.514033   90.959097   20.762352
 H  -27.845044   91.204428   17.340070
 H  -28.772019   92.014432   15.203090
 H  -31.166285   92.660618   15.054957
 H  -33.592467   91.900827   16.634610
 H  -33.169584   93.570714   17.084132
 H  -35.384148   93.095687   17.406957
 H  -37.595767   93.403771   18.342950
 H  -38.046831   92.879230   20.715605
 H  -36.208852   92.030988   22.137451
 H  -33.975297   91.713673   21.215107
