30 
5lcf_ligand_ani-2x.xyz
 O  -27.684750   90.576142   19.519576
 C  -28.859017   90.845489   19.627883
 O  -29.482069   90.694943   20.786626
 C  -29.627048   91.362170   18.420896
 C  -28.858676   91.475150   17.265496
 C  -29.395602   91.931271   16.064848
 C  -30.737467   92.291949   15.988475
 C  -31.514994   92.186503   17.124391
 C  -32.972185   92.513405   17.285068
 N  -33.232512   92.204924   18.692157
 C  -32.091355   91.747599   19.322019
 O  -32.023789   91.415891   20.503549
 C  -30.983965   91.730628   18.330109
 C  -34.520358   92.381604   19.257507
 C  -35.564560   92.861357   18.451431
 C  -36.839635   93.047119   18.970432
 C  -37.103439   92.759417   20.303286
 C  -36.071373   92.283950   21.104746
 C  -34.789659   92.092197   20.601901
 H  -30.431019   90.946109   20.748569
 H  -27.815188   91.190369   17.340860
 H  -28.761791   92.004610   15.186315
 H  -31.160531   92.648608   15.052640
 H  -33.597292   91.899376   16.630850
 H  -33.174185   93.567320   17.074747
 H  -35.387241   93.094092   17.407508
 H  -37.628535   93.420273   18.321319
 H  -38.098561   92.902736   20.714635
 H  -36.258616   92.053104   22.150887
 H  -34.007287   91.721896   21.246575
