41 
5lch_ligand_xtb.xyz
 C   -0.894645   -1.347702   -0.457363
 C   -0.286294    0.341184    1.081370
 C   -1.215246    2.126701   -0.407412
 C    1.363683   -0.377757   -0.645840
 C    3.879611   -0.116521   -1.834501
 C    3.708179    0.201375   -0.493316
 C    2.451771    0.067666    0.093728
 C    5.993170    0.786511   -0.174662
 C    2.790426   -0.563944   -2.564809
 C   -4.164180   -1.307599    1.506651
 C   -3.789431   -0.354684    2.441349
 C   -2.541482    0.249891    2.386880
 C   -1.672887   -0.134782    1.385911
 C   -2.041602   -1.089161    0.444082
 C   -3.299728   -1.678052    0.482422
 C   -3.720226   -2.684951   -0.534542
 O   -4.153756   -3.775708   -0.273194
 O   -3.602266   -2.213566   -1.773484
 O   -0.815780   -2.172708   -1.339284
 N    0.100613   -0.489828   -0.048605
 C   -0.271049    1.840840    0.717801
 C   -2.307218    2.857216   -0.291392
 C    1.541701   -0.692273   -1.993542
 O    4.690455    0.651854    0.338980
 H    0.382104    0.167818    1.934003
 H   -0.957752    1.671217   -1.354235
 H    4.840123   -0.024472   -2.314955
 H    2.373256    0.309768    1.140912
 H    6.031801    1.519839   -0.986764
 H    6.386042   -0.171274   -0.530317
 H    6.602429    1.138650    0.656310
 H    2.922848   -0.810661   -3.607521
 H   -5.138431   -1.768790    1.561157
 H   -4.480956   -0.079726    3.223447
 H   -2.257431    0.993079    3.116564
 H   -3.799109   -2.905953   -2.424048
 H    0.745145    2.116494    0.425561
 H   -0.551802    2.414528    1.602002
 H   -2.966410    3.032257   -1.123639
 H   -2.585387    3.318468    0.642424
 H    0.709811   -1.044746   -2.577927
