41 
5lch_ligand_aiqm1.xyz
 C   -0.881519   -1.377090   -0.458163
 C   -0.321891    0.378355    1.065858
 C   -1.160859    2.225686   -0.455763
 C    1.362622   -0.361854   -0.669181
 C    3.898328   -0.071214   -1.829156
 C    3.709394    0.188823   -0.472042
 C    2.446905    0.040154    0.104260
 C    5.990481    0.738799   -0.156793
 C    2.798605   -0.484827   -2.585507
 C   -4.152998   -1.419726    1.546812
 C   -3.795597   -0.444714    2.474220
 C   -2.565875    0.210798    2.383089
 C   -1.696777   -0.157714    1.365362
 C   -2.046732   -1.135907    0.442004
 C   -3.290998   -1.759303    0.502443
 C   -3.765076   -2.773461   -0.491638
 O   -4.259054   -3.831363   -0.194315
 O   -3.653743   -2.335860   -1.756016
 O   -0.761552   -2.223536   -1.321241
 N    0.084629   -0.468050   -0.066106
 C   -0.300332    1.873765    0.718904
 C   -2.193294    3.071697   -0.398288
 C    1.534576   -0.623750   -2.033458
 O    4.688103    0.596793    0.383840
 H    0.347869    0.203886    1.913808
 H   -0.910328    1.739866   -1.393399
 H    4.866487    0.033122   -2.295070
 H    2.352276    0.240315    1.163194
 H    6.012469    1.497076   -0.943271
 H    6.358861   -0.208631   -0.556199
 H    6.622257    1.054511    0.668279
 H    2.939670   -0.697242   -3.637832
 H   -5.108019   -1.921399    1.624747
 H   -4.482282   -0.190832    3.271953
 H   -2.300899    0.980483    3.097074
 H   -3.925140   -3.066550   -2.325788
 H    0.734585    2.152589    0.509755
 H   -0.624225    2.432786    1.599952
 H   -2.790751    3.292375   -1.271312
 H   -2.461013    3.563775    0.531121
 H    0.700939   -0.962131   -2.625935
