39 
5li3_ligand_aiqm1.xyz
 C  -24.782382   -2.516322   -0.684577
 C  -24.507909   -1.285712   -0.102790
 C  -23.863569    0.108771    3.064527
 C  -23.905688   -0.963180    3.959746
 C  -23.686505   -0.728703    5.311586
 C  -23.428124    0.559236    5.798184
 C  -23.207088    0.720555    7.235710
 C  -23.048119    1.874134    7.906026
 C  -22.872831    1.949085    9.368356
 C  -23.388607    1.625128    4.886091
 C  -23.604674    1.392631    3.533732
 C  -24.500947   -0.344239   -1.166891
 C  -24.912545   -3.860689   -0.049670
 C  -24.266431    1.128021   -1.165377
 O  -23.092613    2.954716   10.027628
 N  -22.487966    0.788095   10.006368
 O  -22.163377    0.981515   11.349562
 N  -24.068928    0.004165    1.655969
 N  -24.302837   -1.162304    1.277246
 N  -24.754754   -0.970204   -2.314074
 N  -24.921022   -2.275968   -2.001939
 C  -25.215611   -3.239002   -3.044308
 H  -24.107212   -1.964107    3.604084
 H  -23.722855   -1.560356    6.006981
 H  -23.204348   -0.215254    7.792331
 H  -23.103572    2.836455    7.414457
 H  -23.185915    2.633413    5.224026
 H  -23.577446    2.203771    2.817623
 H  -23.991008   -4.117377    0.476029
 H  -25.710803   -3.848006    0.694720
 H  -25.127589   -4.636472   -0.784059
 H  -24.998133    1.639405   -0.537798
 H  -23.278176    1.365903   -0.768293
 H  -24.344674    1.497489   -2.187535
 H  -21.771663    0.233719    9.562111
 H  -22.389915    1.924406   11.466100
 H  -24.436540   -3.999669   -3.091856
 H  -26.176539   -3.718874   -2.859544
 H  -25.253484   -2.696973   -3.982880
