54 
5llm_ligand_ani-2x.xyz
 N    2.153222   -2.223229    4.979485
 C    2.967747   -2.547338   -1.956436
 O   -0.660883   -1.201362    2.752843
 C    1.875332   -1.759299    0.070486
 C    0.669275   -1.714037   -0.629258
 C    0.599516   -2.101270   -1.957475
 O    3.067624    1.140001    0.996412
 C    1.932261    1.137296    1.438101
 C    1.259039   -0.105381    1.841855
 C    0.009506   -0.063859    2.362951
 C   -0.133417   -2.445096    2.452471
 N   -0.875181   -3.437072    2.233184
 C    1.382141   -2.490221    2.477275
 C    1.823018   -2.337270    3.877314
 C    1.961307   -1.393229    1.546459
 C    3.014806   -2.164571   -0.617227
 C    1.750466   -2.521416   -2.630954
 O    1.581309   -2.878729   -3.932583
 C    2.723094   -3.302106   -4.644018
 C    1.161571    2.443698    1.602832
 C   -0.366764    2.301219    1.594395
 C   -0.774402    1.172755    2.575496
 C   -0.953343    2.098338    0.204988
 C   -0.232411    1.501715   -0.802001
 C   -0.754675    1.371052   -2.107204
 C   -2.022435    1.796027   -2.396216
 C   -2.829818    2.364976   -1.376428
 C   -2.309457    2.511462   -0.063213
 C   -4.158361    2.786584   -1.652981
 C   -4.952620    3.317984   -0.675461
 C   -4.450144    3.453074    0.636817
 C   -3.170464    3.061416    0.933385
 H    3.879906   -2.859531   -2.454279
 H   -0.229370   -1.337628   -0.138412
 H   -0.337002   -2.081802   -2.505223
 H   -1.852693   -3.147696    2.304513
 H    1.677536   -3.486389    2.147883
 H    3.020770   -1.258937    1.778229
 H    3.973454   -2.179687   -0.098614
 H    3.481970   -2.509850   -4.693968
 H    2.380604   -3.539393   -5.652335
 H    3.169769   -4.197197   -4.190883
 H    1.503058    3.136072    0.829598
 H    1.476626    2.860583    2.568208
 H   -0.768060    3.249505    1.972685
 H   -1.843335    0.945328    2.479842
 H   -0.621305    1.519685    3.609324
 H    0.769818    1.124936   -0.610319
 H   -0.133154    0.932312   -2.884439
 H   -2.434619    1.701179   -3.397502
 H   -4.533431    2.672400   -2.667830
 H   -5.967734    3.634948   -0.900194
 H   -5.082224    3.876023    1.413294
 H   -2.817941    3.173227    1.955427
