63 
5lny_ligand_xtb.xyz
 C   -1.042387   10.932664   27.117411
 C   -2.258622   11.744627   25.100030
 C   -1.132900   12.074549   23.020190
 C    0.136863   11.886915   23.665306
 C    1.073014   11.945581   22.616228
 C    2.501754   11.620836   22.422816
 C    0.807367    9.375939   26.653225
 C    1.375340    8.305745   24.572883
 C    3.089863    8.781530   26.172536
 C    0.428777    8.814980   25.436642
 C   -0.155085    9.566912   28.888271
 N    3.722295    7.908554   24.015112
 C    3.382832    7.707732   22.619121
 C    5.968433    7.097979   23.559258
 C    4.822108   11.807173   23.056751
 C    5.413987   11.189719   24.319867
 C    5.232997   12.149930   25.492533
 C    3.752616   12.485920   25.650922
 N   -0.137845    9.996393   27.502002
 O   -1.908056   11.320214   27.905813
 C   -1.001222   11.436206   25.721236
 C    0.178484   11.592202   25.029841
 C   -2.319267   12.051679   23.759099
 O   -3.401770   11.721637   25.804700
 N    0.330819   12.127479   21.503166
 N   -0.966568   12.237271   21.701395
 O    2.807344   10.913382   21.466926
 C    2.146071    9.314240   27.026061
 C    2.734378    8.300827   24.907309
 C    4.663053    7.791199   21.783133
 O    5.642680    6.872963   22.210417
 C    4.732676    6.961027   24.450074
 C    3.198372   13.055240   24.342937
 N    3.423609   12.123140   23.265488
 H    1.047191    7.894108   23.632656
 H    4.123628    8.774526   26.484134
 H   -0.614001    8.796130   25.158204
 H   -1.150851    9.750963   29.290118
 H    0.077633    8.504783   28.941897
 H    0.566844   10.129285   29.485012
 H    2.716955    8.505282   22.288004
 H    2.905008    6.729259   22.455100
 H    6.718107    6.350875   23.825936
 H    6.395995    8.105827   23.679297
 H    4.881241   11.121003   22.210543
 H    5.359898   12.729574   22.803670
 H    4.898680   10.250682   24.528016
 H    6.472447   10.979333   24.158670
 H    5.613470   11.700733   26.411314
 H    5.799804   13.065578   25.306775
 H    3.605530   13.212474   26.451181
 H    3.212948   11.572592   25.908240
 H    1.123708   11.458607   25.526733
 H   -3.268554   12.254695   23.294114
 H   -3.171866   11.620678   26.757014
 H    0.705903   12.154475   20.564705
 H    2.459191    9.715882   27.978131
 H    5.060527    8.814329   21.842878
 H    4.447610    7.552194   20.741459
 H    4.349495    5.931120   24.361209
 H    5.003115    7.141540   25.489191
 H    3.726771   13.989754   24.108062
 H    2.135564   13.276334   24.428041
