65 
5lrq_ligand_ani-2x.xyz
 C   28.975201    3.526066  104.633135
 C   31.196968    3.131096  103.839131
 C   30.819317    1.966223  103.189090
 C   31.764111    1.226076  102.460863
 C   33.086724    1.679550  102.437927
 C   33.461670    2.847977  103.086010
 C   32.530760    3.600754  103.790254
 C   33.912053    5.592480  104.467117
 C   36.060104    6.024539  103.802536
 C   38.464458    5.607874  103.635575
 C   41.098134    5.570446  104.653431
 C   40.316272    6.707525  104.735964
 C   38.999492    6.754436  104.257711
 C   38.364437    8.108623  104.382425
 C   36.559303    9.691599  104.314207
 C   32.179033   -1.141247  102.022725
 C   30.630477   -2.454755  100.548835
 C   29.870547   -1.163419  100.296477
 O   39.071641    9.088024  104.567169
 N   36.990700    8.289247  104.306622
 C   36.007760    7.290387  104.438009
 C   34.825003    7.542782  105.136002
 N   33.789483    6.716053  105.197034
 C   40.571214    4.442669  104.036172
 C   39.285292    4.472248  103.522566
 N   37.155645    5.535052  103.117690
 C   36.865051    4.531618  102.096951
 N   34.980545    5.237313  103.770582
 N   32.808934    4.784319  104.485050
 O   30.340126    3.911927  104.560658
 C   28.240129    4.578585  105.434384
 N   31.423484    0.073942  101.730684
 C   30.017642   -0.198893  101.467452
 O   30.503554   -3.253046   99.384396
 C   32.088783   -2.126626  100.864449
 H   28.894247    2.543384  105.117045
 H   28.559309    3.444635  103.619602
 H   29.798658    1.601814  103.258660
 H   33.828276    1.121210  101.874594
 H   34.493779    3.171116  103.057229
 H   42.109233    5.567713  105.050918
 H   40.710844    7.615716  105.180642
 H   36.554490   10.102930  105.331305
 H   37.257103   10.278858  103.719823
 H   35.562148    9.769707  103.877173
 H   31.803244   -1.621437  102.946878
 H   33.223909   -0.882216  102.211309
 H   30.182755   -2.969408  101.418444
 H   28.811484   -1.383160  100.121413
 H   30.264653   -0.701606   99.383322
 H   34.709070    8.475383  105.686871
 H   41.165261    3.536783  103.941477
 H   38.903399    3.580253  103.036775
 H   36.730029    3.535111  102.543842
 H   35.934733    4.799049  101.591501
 H   37.676842    4.500578  101.366556
 H   32.036749    5.163231  105.016051
 H   28.652999    4.653218  106.444747
 H   28.317113    5.557429  104.951838
 H   27.181189    4.314028  105.512434
 H   29.516185   -0.633958  102.355476
 H   29.513222    0.742745  101.227875
 H   30.972742   -4.082190   99.541617
 H   32.643923   -3.040744  101.113613
 H   32.551267   -1.694615   99.968587
