15 
5lud_ligand_xtb.xyz
 N   -5.921250   22.386470   -8.798010
 C   -5.127357   21.328608   -8.379165
 C   -5.603130   19.995305   -8.362309
 N   -6.885090   19.676050   -8.773889
 C   -3.851571   21.547554   -7.882303
 C   -3.108372   20.485758   -7.381861
 C   -3.671135   19.226809   -7.410228
 N   -4.881565   18.989651   -7.898624
 H   -6.658301   22.173905   -9.450236
 H   -5.418564   23.232804   -9.016977
 H   -7.264856   20.191628   -9.552225
 H   -7.028366   18.679081   -8.833465
 H   -3.448725   22.551452   -7.880966
 H   -2.117272   20.645055   -6.987514
 H   -3.144148   18.357669   -7.041328
