15 
5lud_ligand_aiqm1.xyz
 N   -5.871069   22.287773   -9.101544
 C   -5.089023   21.306110   -8.463906
 C   -5.583691   19.983747   -8.396039
 N   -6.879589   19.733395   -8.863310
 C   -3.823810   21.540636   -7.956512
 C   -3.106280   20.486590   -7.383896
 C   -3.692490   19.234946   -7.344285
 N   -4.913201   18.981873   -7.846583
 H   -6.840204   22.236558   -8.814857
 H   -5.519223   23.220984   -8.947814
 H   -7.048687   20.139208   -9.773727
 H   -7.063328   18.740123   -8.873684
 H   -3.399275   22.538436   -8.002057
 H   -2.118643   20.647504   -6.976533
 H   -3.181186   18.389917   -6.904354
