36 
5luu_ligand_aiqm1.xyz
 C   31.910747   18.731489    2.161096
 C   32.091167   18.727268    0.640034
 C   33.163040   17.754375    0.188743
 O   34.242881   18.152970   -0.218510
 N   32.910487   16.408971    0.314874
 C   33.894964   15.511313   -0.271707
 C   33.656571   15.338641   -1.779505
 C   31.559154   15.844306    0.341164
 C   31.208553   15.354910   -1.036001
 C   32.190728   15.147288   -1.983289
 N   31.545663   14.782542   -3.116540
 N   30.215374   14.734925   -2.974770
 C   29.987201   15.077039   -1.701882
 C   28.617585   15.134041   -1.175027
 C   28.354001   14.977166    0.190865
 C   27.047926   15.038538    0.670078
 C   25.989698   15.261537   -0.205632
 C   26.243346   15.411422   -1.567966
 C   27.544651   15.345856   -2.049458
 H   31.138954   19.444744    2.450674
 H   31.624194   17.747319    2.533726
 H   32.841984   19.018915    2.650701
 H   32.424294   19.707261    0.305060
 H   31.147725   18.513072    0.136928
 H   33.796745   14.544568    0.227945
 H   34.883094   15.915500   -0.074215
 H   34.222731   14.481803   -2.151605
 H   34.000301   16.228087   -2.314823
 H   30.845155   16.584369    0.687215
 H   31.547587   15.018368    1.063095
 H   31.950738   14.541027   -4.001077
 H   29.161561   14.777898    0.883079
 H   26.861050   14.906932    1.727897
 H   24.975604   15.311005    0.168359
 H   25.423160   15.575409   -2.255125
 H   27.744385   15.449126   -3.107401
