34 
5lvq_ligand_ani-2x.xyz
 C   21.559916    4.185590   56.196787
 N   21.250803    2.774117   56.172853
 C   21.579928    1.954036   57.197953
 C   21.222715    0.485188   57.069202
 C   21.380898   -0.249811   58.245743
 C   21.075226   -1.601661   58.319605
 C   20.605243   -2.243035   57.182153
 C   20.453616   -1.548650   55.986737
 C   20.767062   -0.187216   55.914917
 O   20.643630    0.525671   54.752073
 C   20.163210   -0.085118   53.551430
 C   21.248142   -0.912709   52.861085
 C   20.756555   -1.353588   51.485750
 O   20.386847   -0.249978   50.683275
 C   19.334804    0.493193   51.266494
 C   19.737024    1.048831   52.627469
 O   22.125947    2.359424   58.218695
 H   21.984522    4.416994   57.175594
 H   22.291888    4.445771   55.423362
 H   20.655587    4.785280   56.048303
 H   20.840270    2.354213   55.354562
 H   21.753409    0.291356   59.110380
 H   21.201304   -2.143997   59.251873
 H   20.352499   -3.299451   57.215004
 H   20.090369   -2.084022   55.116424
 H   19.286866   -0.707137   53.780553
 H   21.537177   -1.782771   53.461076
 H   22.139875   -0.286481   52.744167
 H   19.897339   -2.039029   51.596800
 H   21.541933   -1.882658   50.938385
 H   18.438885   -0.144819   51.370917
 H   19.096877    1.295871   50.562350
 H   20.585259    1.733386   52.496336
 H   18.911571    1.617707   53.072791
