56 
5lwm_ligand_aiqm1.xyz
 C   41.013475   23.628779   54.267982
 C   37.115381   22.211388   54.808023
 C   37.542821   21.073292   55.443985
 N   38.909942   21.086072   55.532032
 C   38.992684   26.072191   52.772466
 C   38.785806   27.292873   52.011132
 N   37.998908   25.222237   53.233782
 C   39.670754   28.302101   51.763582
 C   38.995856   29.230036   50.919543
 C   37.744535   28.718288   50.704918
 C   36.551410   29.101314   49.990112
 N   40.209369   25.666986   53.069729
 C   36.380073   30.068320   49.053017
 C   37.415429   31.066688   48.586842
 C   38.416555   32.271123   46.751187
 N   37.558137   31.208234   47.254238
 N   34.035312   30.383067   47.985005
 C   35.071635   30.225871   48.485013
 O   38.062530   31.701359   49.407407
 C   36.932625   30.355938   46.254639
 O   37.605445   27.527787   51.378983
 C   40.023338   24.482851   53.742601
 N   40.716111   22.499034   54.877775
 C   38.658084   24.177347   53.850116
 C   38.296422   22.968983   54.484350
 C   39.397535   22.221663   54.953863
 C   36.539103   25.447098   53.185549
 C   35.936905   25.473001   54.590190
 C   34.425684   25.686891   54.519518
 C   33.765576   24.625592   53.642380
 C   34.353975   24.653446   52.233495
 C   35.865010   24.433060   52.264812
 H   42.056547   23.897052   54.171960
 H   36.085031   22.444260   54.605212
 H   36.973564   20.251213   55.842096
 H   39.491143   20.377651   55.941075
 H   40.674576   28.344225   52.146090
 H   39.367534   30.167364   50.545987
 H   35.691031   28.479695   50.218817
 H   38.793359   32.839870   47.594861
 H   39.252255   31.847535   46.189800
 H   37.847557   32.922790   46.087179
 H   36.717534   29.372747   46.665844
 H   36.005684   30.784059   45.869309
 H   37.634742   30.232753   45.430829
 H   36.390339   26.437919   52.760489
 H   36.144544   24.534866   55.099767
 H   36.413841   26.266254   55.172400
 H   34.214464   26.676142   54.100067
 H   34.003613   25.673255   55.525211
 H   32.686200   24.780805   53.605722
 H   33.933580   23.636324   54.085639
 H   34.138207   25.626752   51.779241
 H   33.881062   23.899291   51.602807
 H   36.086060   23.422439   52.613088
 H   36.290105   24.525830   51.261243
