56 
5lwm_ligand_dft.xyz
 C   41.023317   23.626518   54.205798
 C   37.135571   22.213690   54.832262
 C   37.570493   21.084439   55.471804
 N   38.938606   21.090903   55.534583
 C   38.970483   26.055771   52.736694
 C   38.736357   27.281940   51.989712
 N   37.988390   25.203648   53.216885
 C   39.544482   28.375302   51.835650
 C   38.867181   29.252328   50.956427
 C   37.687166   28.637429   50.616433
 C   36.538504   28.925521   49.807882
 N   40.189417   25.660270   53.005720
 C   36.343040   29.902794   48.891012
 C   37.338030   30.994031   48.573475
 C   38.386607   32.392721   46.900955
 N   37.576641   31.242230   47.258297
 N   34.054130   30.029988   47.680006
 C   35.072176   29.963306   48.234207
 O   37.863084   31.630017   49.479005
 C   37.154440   30.393256   46.157264
 O   37.611915   27.425385   51.257321
 C   40.026999   24.480363   53.691503
 N   40.729015   22.501880   54.828323
 C   38.663287   24.167750   53.826270
 C   38.302439   22.967546   54.476389
 C   39.418172   22.225883   54.932406
 C   36.540734   25.433574   53.206233
 C   35.971968   25.509486   54.627913
 C   34.459243   25.747581   54.586094
 C   33.749495   24.690804   53.734977
 C   34.313762   24.661828   52.311848
 C   35.825265   24.415778   52.312515
 H   42.072833   23.886140   54.093385
 H   36.101187   22.456944   54.643822
 H   37.000577   20.267965   55.890117
 H   39.529576   20.386218   55.944366
 H   40.502510   28.515314   52.312464
 H   39.171777   30.233714   50.628041
 H   35.726469   28.215635   49.948027
 H   38.516693   33.020581   47.780910
 H   39.371957   32.076300   46.537537
 H   37.885612   32.961440   46.110223
 H   36.921806   29.387273   46.507732
 H   36.275768   30.801432   45.645252
 H   37.978969   30.315700   45.441044
 H   36.398968   26.416388   52.754963
 H   36.183114   24.586772   55.176844
 H   36.476616   26.318921   55.167157
 H   34.257361   26.742416   54.164604
 H   34.059525   25.751975   55.605782
 H   32.671993   24.887319   53.709875
 H   33.878929   23.702345   54.198872
 H   34.103126   25.624165   51.823837
 H   33.813859   23.891806   51.714546
 H   36.037861   23.398318   52.659613
 H   36.231506   24.494962   51.298122
