59 
5lwn_ligand_xtb.xyz
 C   -2.684845    0.997866    0.557596
 C   -3.066195    2.480878    0.617308
 C   -2.383349    3.304174   -0.471326
 C   -0.869497    3.136182   -0.398887
 C   -0.487520    1.663853   -0.526482
 C   -1.145459    0.876900    0.601444
 C   -0.912911   -1.270924    1.801332
 C   -1.258148   -1.000896    3.128882
 C   -1.630083    0.099711    3.944450
 C   -0.655778   -3.634860    2.387286
 C   -0.413536   -1.414456   -0.318262
 C   -0.081539   -1.070642   -1.695635
 C    1.246208   -0.330841   -3.258003
 O    2.840231    1.716436   -0.929360
 C    3.314610    0.739190   -1.476467
 N    3.758930   -0.346989   -0.819302
 C    3.531728   -0.450867    0.603344
 C    4.251486   -1.540932   -1.457455
 C    3.441982    0.706941   -2.984957
 C    4.618332    1.261283   -3.511068
 N    5.606559    1.684744   -3.915355
 C    2.437028    0.266064   -3.772421
 C    0.129066   -0.831172   -3.894116
 C   -0.721458   -1.316344   -2.884007
 O    1.108270   -0.489332   -1.921548
 N   -0.765944   -0.521027    0.665991
 C   -3.300371    0.287710   -0.646268
 N   -0.309886   -2.644373    0.106861
 C   -0.616098   -2.604525    1.439556
 N   -0.971642   -3.406135    3.640914
 C   -1.255880   -2.145225    3.970910
 N   -1.606245   -1.735615    5.219406
 C   -1.830857   -0.390583    5.201644
 H   -3.078845    0.509462    1.457583
 H   -2.775140    2.879489    1.592659
 H   -4.150436    2.576993    0.532483
 H   -2.739940    2.991031   -1.453957
 H   -2.646847    4.356259   -0.346766
 H   -0.501915    3.525695    0.553015
 H   -0.387633    3.703170   -1.196237
 H    0.597829    1.565211   -0.474508
 H   -0.822007    1.297145   -1.497185
 H   -0.803854    1.314705    1.548362
 H   -1.739722    1.123819    3.647637
 H   -0.427148   -4.654622    2.117425
 H    3.158038    0.506558    0.960742
 H    2.795180   -1.231286    0.813262
 H    4.464572   -0.692099    1.115222
 H    5.110475   -1.916289   -0.898467
 H    4.565563   -1.331443   -2.477797
 H    3.479820   -2.317635   -1.472423
 H    2.509028    0.341827   -4.848420
 H   -0.049008   -0.846291   -4.950051
 H   -1.678827   -1.778847   -3.007237
 H   -2.963769    0.715468   -1.586053
 H   -3.042315   -0.769714   -0.639601
 H   -4.384161    0.369995   -0.604218
 H   -1.685122   -2.344209    6.015837
 H   -2.121108    0.131417    6.092790
