59 
5lwn_ligand_ani-2x.xyz
 C   -2.381501    1.024945    0.189341
 C   -2.567016    2.545930    0.336538
 C   -1.383446    3.346155   -0.224351
 C   -0.061084    2.925274    0.426560
 C    0.145431    1.416851    0.288028
 C   -1.041159    0.645900    0.858523
 C   -1.255908   -1.511433    2.062877
 C   -1.734867   -1.150319    3.322893
 C   -2.037055    0.025383    4.095698
 C   -1.531776   -3.857021    2.651594
 C   -0.512961   -1.772873    0.003588
 C   -0.024182   -1.627626   -1.355481
 C    1.015536   -0.792264   -3.109777
 O    2.797225    2.269451   -1.182056
 C    3.001004    1.259907   -1.848401
 N    3.698224    0.192246   -1.359755
 C    3.986945    0.170574    0.059851
 C    4.166938   -0.931013   -2.151521
 C    2.535806    1.185719   -3.287037
 C    2.919454    2.315594   -4.087711
 N    3.224249    3.219302   -4.743592
 C    1.761004    0.221094   -3.833504
 C    0.443733   -1.968244   -3.517020
 C   -0.203005   -2.514803   -2.373840
 O    0.745179   -0.587017   -1.785715
 N   -0.824934   -0.806008    0.956082
 C   -2.501249    0.559613   -1.264343
 N   -0.732469   -2.993819    0.428235
 C   -1.171791   -2.861040    1.716802
 N   -1.970407   -3.564925    3.863199
 C   -2.060452   -2.251273    4.151474
 N   -2.512696   -1.765308    5.343802
 C   -2.500161   -0.395648    5.306470
 H   -3.178673    0.531934    0.762306
 H   -2.688801    2.780679    1.405373
 H   -3.500467    2.847469   -0.156119
 H   -1.316823    3.180755   -1.310241
 H   -1.555417    4.420581   -0.086515
 H   -0.074249    3.202247    1.491758
 H    0.783707    3.450329   -0.031641
 H    1.057611    1.092494    0.801757
 H    0.264653    1.174017   -0.764394
 H   -1.128838    0.955408    1.902132
 H   -1.941716    1.067183    3.818464
 H   -1.452863   -4.907905    2.380714
 H    3.771344    1.161909    0.458148
 H    3.380670   -0.578260    0.588754
 H    5.045063   -0.063491    0.225570
 H    5.076189   -1.325255   -1.689087
 H    4.428625   -0.610058   -3.162709
 H    3.428773   -1.741695   -2.207335
 H    1.675419    0.177077   -4.915154
 H    0.492805   -2.398144   -4.508964
 H   -0.741487   -3.450271   -2.291665
 H   -1.680541    0.939804   -1.883026
 H   -2.495422   -0.531912   -1.342302
 H   -3.440490    0.922299   -1.697630
 H   -2.811785   -2.346658    6.110573
 H   -2.829998    0.178162    6.163880
