82 
5lzg_ligand_ani-2x.xyz
 C   -2.110125   -3.161095    0.351956
 C   -3.478403   -2.768792   -0.209681
 C   -4.556690   -2.662684    0.862739
 C   -1.066538   -3.172873   -0.771099
 O   -0.329783   -1.862231   -2.691683
 C   -1.114077   -1.838324   -1.523068
 O    0.241055   -3.399378   -0.287808
 O   -1.680135   -2.238251    1.345780
 O   -4.282245   -1.604231    1.768829
 O   -3.403992   -1.516769   -0.838957
 C   -2.537355   -1.476070   -1.951887
 C   -2.601624   -0.066758   -2.557232
 C   -3.973324    0.615531   -2.418467
 N   -4.030637    1.519006   -1.280059
 C   -4.739630    1.294874   -0.151181
 O   -5.375571    0.262018    0.063284
 C   -4.685372    2.401619    0.888250
 C   -3.483666    2.261935    1.831897
 C   -2.175481    2.459760    1.134784
 C   -0.955110    1.863728    1.333695
 N   -2.037658    3.358710    0.118280
 N   -0.812767    3.340971   -0.310797
 N   -0.139299    2.450829    0.419698
 C    1.224667    2.091185    0.030615
 C    2.034782    3.398887   -0.069078
 O    2.650213    3.889827    0.840954
 O    1.969959    3.938604   -1.293112
 O    1.695719    1.312538    1.087803
 C    1.199554    1.274774   -1.251059
 C    2.517233    0.595629   -1.584756
 O    2.197607   -0.421729   -2.518346
 C    3.199982   -0.045406   -0.355428
 N    4.638486   -0.227230   -0.542454
 C    5.302448   -0.649393   -1.646840
 O    4.799214   -0.817883   -2.759252
 C    6.780760   -0.914084   -1.449912
 C    3.018741    0.802221    0.929239
 C    3.290074    0.084788    2.261475
 O    4.453588   -0.713933    2.155921
 C    2.127096   -0.764899    2.791272
 O    2.643811   -1.468993    3.910407
 C    1.569053   -1.785108    1.804025
 O    0.739982   -2.703593    2.501912
 H   -2.186750   -4.165966    0.799438
 H   -3.783117   -3.533974   -0.942533
 H   -4.600459   -3.591031    1.442855
 H   -5.529689   -2.494312    0.388707
 H   -1.324183   -3.966009   -1.487708
 H    0.582491   -1.584372   -2.496132
 H   -0.770057   -1.073823   -0.808595
 H    0.210299   -3.548843    0.670956
 H   -2.483931   -1.824604    1.726942
 H   -4.696270   -0.816317    1.365677
 H   -2.874417   -2.215690   -2.697663
 H   -2.293749   -0.135566   -3.605652
 H   -1.853441    0.578367   -2.070577
 H   -4.197846    1.188985   -3.324079
 H   -4.764947   -0.122230   -2.275132
 H   -3.391498    2.307930   -1.272818
 H   -5.613441    2.342940    1.462783
 H   -4.649688    3.378968    0.397590
 H   -3.575945    2.997850    2.639864
 H   -3.496416    1.272122    2.311021
 H   -0.606844    1.102021    2.012417
 H    2.458344    4.776360   -1.246023
 H    0.450920    0.487071   -1.105875
 H    0.876607    1.900385   -2.085959
 H    3.211217    1.321405   -2.026776
 H    3.058480   -0.725847   -2.878094
 H    2.727193   -1.027124   -0.228832
 H    5.135493   -0.289808    0.338386
 H    7.157762   -0.640165   -0.459988
 H    6.971249   -1.977870   -1.624071
 H    7.334413   -0.359620   -2.212929
 H    3.714144    1.650201    0.864879
 H    3.467965    0.873883    3.006143
 H    4.393381   -1.340024    2.895951
 H    1.311700   -0.101833    3.111914
 H    2.050154   -2.231596    4.017273
 H    1.002614   -1.295161    1.004677
 H    2.387364   -2.358886    1.354665
 H   -0.180518   -2.413529    2.366100
