82 
5lzg_ligand_xtb.xyz
 C   -2.605565   -3.212744    0.612912
 C   -4.012171   -2.692069    0.274667
 C   -4.799072   -2.314797    1.544545
 C   -1.915871   -3.530633   -0.723281
 O   -1.249573   -2.466996   -2.793444
 C   -1.838207   -2.229431   -1.543503
 O   -0.665441   -4.155505   -0.629464
 O   -1.889035   -2.222159    1.327460
 O   -4.289993   -1.134351    2.113395
 O   -3.896565   -1.512626   -0.483930
 C   -3.261489   -1.676444   -1.731496
 C   -3.244044   -0.323070   -2.447266
 C   -4.563610    0.453062   -2.286590
 N   -4.427457    1.550656   -1.355522
 C   -4.838105    1.514784   -0.081790
 O   -5.512044    0.617538    0.403501
 C   -4.430000    2.727826    0.744284
 C   -3.173172    2.427215    1.567153
 C   -1.943713    2.328217    0.731043
 C   -0.653235    2.032545    1.118941
 N   -1.915950    2.547705   -0.602579
 N   -0.725731    2.396380   -1.046180
 N    0.063119    2.082442   -0.029265
 C    1.489021    1.901198   -0.173034
 C    2.127291    3.301204    0.020917
 O    2.749475    3.629838    0.991246
 O    1.861377    4.097846   -1.002011
 O    1.856501    1.023188    0.859415
 C    1.825592    1.323769   -1.541959
 C    3.322995    1.024058   -1.620472
 O    3.559579    0.453235   -2.868245
 C    3.727527    0.073807   -0.465304
 N    5.167018   -0.093252   -0.337283
 C    6.188597    0.266317   -1.135256
 O    6.084395    0.815467   -2.218754
 C    7.534703   -0.094863   -0.543913
 C    3.219823    0.633203    0.887712
 C    3.309301   -0.329937    2.098698
 O    4.418752   -1.188076    2.001698
 C    2.041966   -1.177827    2.337902
 O    2.364607   -2.035467    3.415043
 C    1.616945   -2.038150    1.140548
 O    0.694891   -3.015199    1.567328
 H   -2.671521   -4.128477    1.220915
 H   -4.558467   -3.469541   -0.284682
 H   -4.701536   -3.111825    2.287314
 H   -5.854254   -2.187758    1.287523
 H   -2.547959   -4.242248   -1.272261
 H   -0.599931   -3.173961   -2.667056
 H   -1.243546   -1.491625   -0.976383
 H   -0.149515   -3.773916    0.104037
 H   -2.558742   -1.641569    1.745419
 H   -4.649728   -0.409022    1.559079
 H   -3.828678   -2.406082   -2.335046
 H   -3.022480   -0.510978   -3.495948
 H   -2.433755    0.284759   -2.042470
 H   -4.876985    0.866392   -3.248756
 H   -5.346588   -0.201034   -1.900890
 H   -3.704726    2.228596   -1.575254
 H   -5.248732    2.950593    1.430014
 H   -4.253092    3.588059    0.099914
 H   -3.026587    3.222404    2.304442
 H   -3.308709    1.492699    2.118837
 H   -0.205484    1.798837    2.059188
 H    2.239105    4.983952   -0.869959
 H    1.269539    0.397414   -1.694608
 H    1.544686    2.022644   -2.327725
 H    3.889241    1.963074   -1.502359
 H    4.527693    0.495672   -3.010840
 H    3.275805   -0.904492   -0.671480
 H    5.403564   -0.582917    0.516632
 H    7.649218    0.354566    0.439263
 H    7.617002   -1.174757   -0.446001
 H    8.320224    0.265048   -1.201895
 H    3.844447    1.510095    1.111552
 H    3.418875    0.297405    2.997927
 H    4.262280   -1.874145    2.672298
 H    1.212216   -0.517934    2.624961
 H    1.796110   -2.816416    3.319106
 H    1.198589   -1.407897    0.351702
 H    2.481933   -2.589970    0.760820
 H   -0.179819   -2.601528    1.714270
