82 
5lzh_ligand_xtb.xyz
 C    2.681146    1.118365   -2.788028
 C    2.258494    2.040067   -1.631299
 C    1.039810    2.893118   -1.978631
 C    3.771160    0.140882   -2.296573
 O    4.442572   -1.280244   -0.457532
 C    3.372467   -0.522919   -0.960337
 O    4.028131   -0.840937   -3.266840
 O    1.616350    0.430574   -3.379963
 O    0.660156    3.687094   -0.878635
 O    1.901890    1.304212   -0.472382
 C    2.991112    0.563096    0.052987
 C    2.575653    0.017599    1.419295
 C    3.702725    0.059175    2.455823
 N    3.193645   -0.276141    3.766264
 C    2.700573    0.684517    4.583603
 O    2.852936    1.872211    4.381563
 C    1.927962    0.147971    5.779229
 C    0.425321    0.217084    5.466637
 C    0.088417   -0.578293    4.253421
 C   -0.800192   -0.309607    3.231814
 N    0.692073   -1.752656    3.961864
 N    0.244352   -2.206773    2.855703
 N   -0.663626   -1.356163    2.385410
 C   -1.309587   -1.608129    1.116223
 C   -2.016453   -2.978316    1.290568
 O   -1.195174   -3.990171    1.070848
 O   -3.162894   -3.092228    1.620263
 O   -2.233080   -0.574247    0.907095
 C   -0.261323   -1.615714    0.009298
 C   -0.907679   -1.782124   -1.362174
 O    0.127113   -1.634683   -2.293735
 C   -2.023950   -0.727545   -1.563586
 N   -2.891212   -1.035576   -2.692157
 C   -2.632683   -1.650146   -3.860254
 O   -1.570842   -2.168401   -4.169029
 C   -3.826411   -1.662008   -4.786889
 C   -2.943357   -0.669364   -0.314513
 C   -3.958941    0.497189   -0.257198
 O   -4.528206    0.743841   -1.519780
 C   -3.414745    1.819794    0.320859
 O   -4.474470    2.742820    0.175954
 C   -2.172762    2.365129   -0.389465
 O   -1.999953    3.696432    0.039302
 H    3.096559    1.737003   -3.592550
 H    3.110884    2.696205   -1.386867
 H    0.217958    2.227848   -2.273312
 H    1.267716    3.562283   -2.810242
 H    4.710887    0.684881   -2.137290
 H    4.831804   -1.749158   -1.208088
 H    2.498283   -1.173559   -1.134522
 H    3.193518   -1.005734   -3.733556
 H    1.178721   -0.169766   -2.744516
 H    0.911200    3.196006   -0.082916
 H    3.854244    1.236506    0.177744
 H    2.222775   -1.009214    1.324241
 H    1.754905    0.641606    1.782854
 H    4.110497    1.070239    2.526690
 H    4.492817   -0.638569    2.174699
 H    2.861616   -1.222425    3.897256
 H    2.139247    0.776579    6.644156
 H    2.212923   -0.881050    5.991939
 H    0.129688    1.255041    5.303956
 H   -0.136442   -0.169330    6.321693
 H   -1.480569    0.490515    3.043267
 H   -1.619225   -4.841269    1.273434
 H    0.261731   -0.656265    0.024853
 H    0.453508   -2.419966    0.178578
 H   -1.359546   -2.782948   -1.446657
 H   -0.265945   -1.860475   -3.175743
 H   -1.532953    0.238912   -1.729170
 H   -3.784307   -0.562993   -2.615240
 H   -3.590201   -2.255964   -5.664927
 H   -4.060677   -0.645869   -5.095824
 H   -4.694164   -2.081423   -4.284468
 H   -3.525694   -1.603583   -0.326546
 H   -4.751875    0.178433    0.438353
 H   -4.965365    1.607449   -1.428808
 H   -3.185110    1.679847    1.384596
 H   -4.077254    3.619574    0.279416
 H   -1.306280    1.750333   -0.123619
 H   -2.333651    2.339899   -1.477795
 H   -1.148942    4.012211   -0.308288
