43 
5m17_ligand_xtb.xyz
 C   -0.703035   -0.666917    1.255860
 C   -1.471313   -1.997163    1.290109
 C   -2.387011   -2.099824    0.067454
 C   -3.271771   -0.850132   -0.026327
 C   -2.373239    0.392598   -0.057051
 C   -3.184561    1.690835   -0.035413
 O   -2.208165   -2.059901    2.478433
 O   -3.173393   -3.258108    0.214184
 O   -4.065016   -0.984125   -1.180721
 O   -1.542488    0.440729    1.090271
 O   -3.945478    1.784116   -1.222632
 O    2.884332   -1.692648   -0.121770
 C    2.462402   -0.430351   -0.561922
 C    3.666355    0.522112   -0.553681
 C    4.751608    0.063826   -1.532776
 O    5.875456    0.897884   -1.482385
 C    1.357954    0.135071    0.344982
 O    0.262346   -0.772133    0.250062
 C    1.023296    1.561957   -0.089198
 C    2.310059    2.386981   -0.095618
 O    3.283554    1.827427   -0.943437
 H   -0.236252   -0.501838    2.238852
 H   -0.735566   -2.816083    1.251866
 H   -1.771316   -2.162619   -0.842010
 H   -3.907696   -0.801075    0.874136
 H   -1.763376    0.359087   -0.972657
 H   -3.833733    1.684701    0.849392
 H   -2.485135    2.530645    0.051815
 H   -2.855720   -2.769662    2.356316
 H   -3.872822   -3.203610   -0.449175
 H   -4.317129   -0.096844   -1.474970
 H   -4.423845    2.619756   -1.224199
 H    2.090692   -2.225361    0.014697
 H    2.062992   -0.494150   -1.586920
 H    4.085639    0.543119    0.465151
 H    4.323582    0.048031   -2.545049
 H    5.079706   -0.940045   -1.262184
 H    5.561653    1.804802   -1.586618
 H    1.719909    0.139401    1.385864
 H    0.292063    2.001051    0.588877
 H    0.603277    1.534107   -1.096157
 H    2.125817    3.391142   -0.482604
 H    2.705072    2.463312    0.929255
