66 
5m28_ligand_aiqm1.xyz
 C   -5.628306    2.075352    1.675907
 C   -5.672862    0.591979    2.050939
 C   -4.271318    0.026293    2.110797
 C   -3.569448    0.289322    0.782431
 C   -3.568243    1.793062    0.497216
 C   -3.017817    2.172579   -0.863362
 O   -5.017795    2.820843    2.705059
 O   -6.302261    0.507784    3.317320
 O   -4.390394   -1.351301    2.419149
 O   -2.216422   -0.167529    0.870256
 O   -4.925702    2.262001    0.487741
 O   -3.066864    3.572358   -1.043696
 C   -1.970927   -1.408554    0.263850
 C   -1.071333   -2.251669    1.160424
 C    0.289674   -1.614285    1.311828
 C    0.880241   -1.406027   -0.078457
 C   -0.077210   -0.585418   -0.947748
 C    0.361695   -0.479259   -2.394457
 O   -1.715566   -2.409601    2.411428
 O    1.055258   -2.493265    2.115162
 O    2.115167   -0.696953    0.046354
 O   -1.360214   -1.227937   -0.993208
 O   -0.563298    0.281709   -3.143964
 C    3.267056   -1.448105   -0.234263
 C    4.323138   -1.190928    0.834056
 C    4.792380    0.241940    0.780438
 C    5.316168    0.539042   -0.612686
 C    4.217722    0.237019   -1.638343
 C    4.695584    0.321780   -3.075215
 O    3.760243   -1.514439    2.094488
 O    5.788401    0.381376    1.782586
 O    5.711163    1.897473   -0.606621
 O    3.767929   -1.118124   -1.506629
 O    5.116187    1.662343   -3.317510
 H   -6.642369    2.444368    1.490206
 H   -6.252223    0.047492    1.296887
 H   -3.714687    0.545953    2.896793
 H   -4.095385   -0.250051   -0.017796
 H   -2.999081    2.305100    1.280413
 H   -1.972803    1.876998   -0.951954
 H   -3.596742    1.654111   -1.642811
 H   -5.382779    2.473650    3.525504
 H   -6.167547   -0.388641    3.633230
 H   -3.512772   -1.706421    2.601769
 H   -3.958507    3.850975   -0.820350
 H   -2.899440   -1.942255    0.063000
 H   -0.951772   -3.227980    0.676999
 H    0.186139   -0.640543    1.797902
 H    1.055267   -2.388026   -0.540186
 H   -0.180723    0.419764   -0.521657
 H    0.471994   -1.489725   -2.814408
 H    1.321786    0.032224   -2.456707
 H   -1.066490   -2.773511    3.018599
 H    1.923779   -2.104089    2.268616
 H   -1.424439   -0.124307   -3.014149
 H    3.038734   -2.512123   -0.284093
 H    5.171339   -1.852328    0.625076
 H    3.952447    0.911768    0.988549
 H    6.179664   -0.114688   -0.818002
 H    3.385220    0.935180   -1.486819
 H    5.526144   -0.375381   -3.223892
 H    3.872022    0.043230   -3.733757
 H    4.349153   -1.158078    2.765039
 H    6.157162    1.262916    1.697997
 H    5.775717    2.195105   -1.519852
 H    5.399468    1.737650   -4.228217
