66 
5m28_ligand_xtb.xyz
 C   -5.253092    2.354008    1.630167
 C   -5.435724    0.917542    2.152296
 C   -4.086297    0.191054    2.134216
 C   -3.473275    0.274571    0.725333
 C   -3.394295    1.746485    0.294139
 C   -2.941868    1.905853   -1.160474
 O   -4.479482    3.096209    2.525800
 O   -5.940243    0.998164    3.461725
 O   -4.322719   -1.129534    2.552322
 O   -2.166729   -0.279197    0.749977
 O   -4.680188    2.355738    0.363670
 O   -2.804121    3.252719   -1.508529
 C   -1.992399   -1.554888    0.207539
 C   -1.159530   -2.407675    1.180138
 C    0.222799   -1.772868    1.323776
 C    0.871406   -1.672222   -0.063347
 C   -0.061553   -0.929967   -1.033239
 C    0.447511   -1.001340   -2.476993
 O   -1.819353   -2.488057    2.416601
 O    0.978153   -2.565876    2.202884
 O    2.084605   -0.962746    0.104975
 O   -1.366595   -1.504184   -1.044618
 O   -0.222992   -0.109271   -3.320617
 C    3.266714   -1.524161   -0.379722
 C    4.336385   -1.387009    0.717897
 C    4.625516    0.096671    0.933152
 C    5.042940    0.735913   -0.397759
 C    3.943873    0.478162   -1.439749
 C    4.334616    0.963501   -2.838337
 O    3.851735   -1.997436    1.887351
 O    5.634812    0.212456    1.906933
 O    5.253379    2.102566   -0.152166
 O    3.686215   -0.915635   -1.568830
 O    4.532838    2.361372   -2.803950
 H   -6.240476    2.824663    1.493420
 H   -6.135139    0.378028    1.497032
 H   -3.397108    0.695740    2.830010
 H   -4.111488   -0.275887    0.021119
 H   -2.699610    2.276094    0.958925
 H   -1.966034    1.440284   -1.302542
 H   -3.680617    1.409792   -1.808202
 H   -4.785538    2.862339    3.412836
 H   -5.876869    0.110195    3.837454
 H   -3.478816   -1.613170    2.557648
 H   -3.600126    3.708216   -1.206205
 H   -2.957403   -2.045383    0.023386
 H   -1.044705   -3.414449    0.748397
 H    0.106261   -0.753975    1.724398
 H    1.066316   -2.685840   -0.440754
 H   -0.121483    0.118293   -0.709675
 H    0.329920   -2.036788   -2.828072
 H    1.503950   -0.730973   -2.509318
 H   -1.153615   -2.755605    3.065470
 H    1.914949   -2.312569    2.124917
 H   -1.169159   -0.280112   -3.241601
 H    3.129223   -2.584077   -0.632681
 H    5.258046   -1.885397    0.381127
 H    3.704750    0.590438    1.280951
 H    5.979166    0.260490   -0.740595
 H    3.032525    1.001379   -1.117008
 H    5.252394    0.447098   -3.150732
 H    3.528177    0.692158   -3.528048
 H    4.403896   -1.677829    2.613977
 H    5.951870    1.123577    1.871050
 H    5.155208    2.576661   -0.990900
 H    4.588793    2.694895   -3.705144
