34 
5m39_ligand_aiqm1.xyz
 N   -9.061958   -5.757138   -7.390306
 C  -10.613622   -7.232086   -6.256548
 C   -8.292501   -7.785115   -4.486767
 C   -6.856464   -7.195067   -6.330572
 C  -11.698390   -6.752851   -6.914756
 C   -5.757761   -7.709677   -5.637520
 C   -5.920424   -8.255348   -4.371428
 C   -9.042256   -3.562427   -9.457338
 C   -3.627555   -8.757773   -4.165850
 C   -9.289665   -6.700593   -6.510487
 C  -11.467953   -5.709717   -7.850188
 C  -10.227362   -4.304653   -8.965686
 C   -8.530365   -8.828365   -1.909680
 C   -8.126379   -7.234176   -5.772781
 C   -7.208032   -8.283801   -3.788053
 N  -12.269485   -5.022045   -8.637878
 N  -11.480605   -4.142067   -9.334259
 N  -10.168617   -5.293449   -8.021239
 O   -7.265499   -8.822335   -2.545247
 O   -4.931604   -8.778744   -3.612677
 H  -10.718324   -8.039278   -5.550824
 H   -9.269027   -7.790111   -4.026299
 H   -6.718179   -6.762441   -7.311705
 H  -12.698863   -7.130367   -6.761925
 H   -4.780739   -7.671760   -6.095558
 H   -9.360686   -2.846958  -10.210290
 H   -8.553415   -3.036212   -8.635347
 H   -8.311202   -4.249310   -9.888690
 H   -3.580414   -9.335717   -5.091959
 H   -3.295853   -7.735238   -4.360902
 H   -2.981050   -9.212241   -3.422721
 H   -8.914274   -7.813507   -1.780311
 H   -9.256451   -9.417171   -2.476991
 H   -8.374726   -9.284361   -0.938417
