34 
5m39_ligand_xtb.xyz
 N   -9.099390   -5.748471   -7.328836
 C  -10.668431   -7.188239   -6.224923
 C   -8.314182   -7.801813   -4.473407
 C   -6.930238   -7.172667   -6.332405
 C  -11.727915   -6.673447   -6.906061
 C   -5.820970   -7.683546   -5.680979
 C   -5.939894   -8.255928   -4.424265
 C   -8.985264   -3.558479   -9.424351
 C   -3.624647   -8.752304   -4.244584
 C   -9.345369   -6.691573   -6.456725
 C  -11.467544   -5.645773   -7.831539
 C  -10.179086   -4.275863   -8.930713
 C   -8.467063   -8.953814   -1.894396
 C   -8.186248   -7.232378   -5.744958
 C   -7.214029   -8.306664   -3.808888
 N  -12.219433   -4.932558   -8.638800
 N  -11.422646   -4.099330   -9.305075
 N  -10.137924   -5.255437   -7.985438
 O   -7.237683   -8.868302   -2.570308
 O   -4.921887   -8.785366   -3.701838
 H  -10.809689   -7.996343   -5.526383
 H   -9.279510   -7.815148   -3.994542
 H   -6.828742   -6.729455   -7.309477
 H  -12.739602   -7.020212   -6.773690
 H   -4.860178   -7.630933   -6.167070
 H   -8.334883   -4.242779   -9.968309
 H   -9.299523   -2.756759  -10.084800
 H   -8.422709   -3.151903   -8.585354
 H   -3.564227   -9.319613   -5.179134
 H   -3.287284   -7.725618   -4.419942
 H   -2.983654   -9.219183   -3.498642
 H   -8.896941   -7.963620   -1.709278
 H   -9.188755   -9.567350   -2.444381
 H   -8.244160   -9.431236   -0.941706
