37 
5m3a_ligand_aiqm1.xyz
 C   26.828330   50.858595   -5.051429
 C   27.120130   51.733929   -4.009360
 C   27.933430   51.296784   -2.971276
 C   28.746959   51.835053   -0.826950
 C   29.273543   51.166804    1.196761
 N   30.001859   52.201546   -0.502438
 C   26.907950   50.530032    0.396744
 C   25.265722   49.491217    1.866814
 C   24.459251   49.350385    0.705351
 C   24.155888   49.909997   -2.851137
 C   28.450045   50.006803   -2.941247
 C   26.478175   50.073485    1.701033
 C   24.018559   49.568981   -1.417097
 C   28.130636   49.136064   -3.982102
 C   30.911990   53.013219   -1.281903
 C   27.329170   49.555571   -5.041351
 C   28.217841   51.143161    0.254192
 N   30.338553   51.811295    0.741750
 N   26.177695   50.424704   -0.681512
 N   23.263996   48.834519    0.501211
 N   22.995681   48.976761   -0.836748
 N   24.973127   49.827170   -0.476170
 O   28.224132   52.250098   -1.997429
 H   26.197051   51.194546   -5.863873
 H   26.726003   52.741054   -3.987447
 H   29.306849   50.734384    2.182283
 H   24.901996   49.142059    2.821908
 H   23.241738   49.622093   -3.365582
 H   24.326856   50.980227   -2.980168
 H   25.009360   49.390405   -3.296639
 H   29.066186   49.680203   -2.114576
 H   27.134570   50.218514    2.542373
 H   28.510676   48.123768   -3.962307
 H   30.526244   53.077266   -2.296506
 H   30.981572   54.007948   -0.848482
 H   31.894170   52.549152   -1.276886
 H   27.088667   48.871607   -5.842605
