45 
5m4k_ligand_xtb.xyz
 C   33.728806  -36.585340    9.597804
 N   31.953506  -32.701306   10.087258
 O   30.977708  -33.500833   11.952425
 C   34.015742  -37.298251   10.764591
 N   31.661874  -30.765143   12.318684
 O   36.685903  -32.022496    7.246203
 C   33.522633  -36.854013   11.978992
 O   32.265488  -35.343239   13.250896
 C   32.756499  -35.694100   12.055001
 O   34.754864  -38.426613   10.660007
 C   32.536520  -34.926886   10.891262
 O   32.073797  -29.387613   10.566721
 C   33.005539  -35.420150    9.671082
 C   31.780100  -33.672048   11.017683
 C   33.142551  -32.551589    9.329925
 C   34.383205  -32.631961    9.957610
 C   35.539591  -32.457757    9.233132
 C   35.487848  -32.181849    7.864687
 C   34.247899  -32.089374    7.241327
 C   33.087956  -32.273289    7.972664
 C   36.701371  -31.711313    5.873270
 C   31.653201  -30.431624   11.019213
 C   32.139326  -29.887426   13.361864
 C   31.074219  -31.542026   10.126213
 C   31.023314  -29.531392   14.337144
 H   34.083635  -36.966376    8.654894
 H   31.259719  -31.656459   12.588950
 H   33.698638  -37.407330   12.890263
 H   31.633205  -34.601055   13.099439
 H   34.869759  -38.828389   11.530387
 H   32.776040  -34.890048    8.761110
 H   34.434084  -32.830933   11.017422
 H   36.505662  -32.516910    9.707622
 H   34.168331  -31.874297    6.187817
 H   32.133790  -32.210490    7.471050
 H   36.248992  -32.508844    5.275137
 H   36.188124  -30.766226    5.670222
 H   37.752300  -31.614433    5.605893
 H   32.521524  -28.990753   12.868954
 H   32.961434  -30.376566   13.896631
 H   30.104151  -31.862146   10.514241
 H   30.962069  -31.144659    9.117373
 H   30.216271  -29.022632   13.815930
 H   30.625257  -30.430354   14.803292
 H   31.404256  -28.875669   15.115118
