45 
5m4k_ligand_aiqm1.xyz
 C   33.726617  -36.664911    9.500430
 N   32.289501  -32.580280   10.119068
 O   31.347144  -33.362413   11.998591
 C   33.906578  -37.432798   10.655729
 N   31.158482  -30.176772   12.504586
 O   36.772596  -32.243619    6.809859
 C   33.471272  -36.977638   11.888410
 O   32.410466  -35.368692   13.200635
 C   32.851409  -35.730579   11.988131
 O   34.507528  -38.643946   10.503287
 C   32.720327  -34.905121   10.848395
 O   33.303466  -30.619642   11.912566
 C   33.139712  -35.420931    9.609817
 C   32.091184  -33.582758   11.025956
 C   33.431319  -32.494170    9.259210
 C   34.730180  -32.556236    9.779289
 C   35.817248  -32.471388    8.927876
 C   35.633756  -32.308082    7.550112
 C   34.343439  -32.222501    7.029125
 C   33.248104  -32.314728    7.893497
 C   36.623078  -32.080546    5.410483
 C   32.108707  -30.686162   11.688490
 C   31.523010  -29.743862   13.849547
 C   31.576192  -31.337757   10.409384
 C   30.304764  -29.180910   14.555445
 H   34.050433  -37.057023    8.548586
 H   30.224857  -30.529007   12.370793
 H   33.572790  -37.573568   12.788702
 H   31.889494  -34.547977   13.063467
 H   34.571041  -39.076977   11.356818
 H   32.983790  -34.842555    8.711268
 H   34.874390  -32.655660   10.846007
 H   36.826914  -32.517327    9.310299
 H   34.171297  -32.086620    5.972154
 H   32.244030  -32.251845    7.489455
 H   36.075172  -32.917296    4.969787
 H   36.110537  -31.145597    5.171844
 H   37.629900  -32.054392    5.005159
 H   32.306159  -28.992828   13.753744
 H   31.946937  -30.583123   14.407966
 H   30.511585  -31.556898   10.491057
 H   31.732573  -30.647605    9.582696
 H   29.896942  -28.333194   14.003726
 H   29.527692  -29.941970   14.647346
 H   30.564090  -28.844293   15.558610
