49 
5m51_ligand_xtb.xyz
 O   29.038879   -4.808623   17.054511
 C   29.624186   -4.153750   16.219297
 N   29.065550   -3.840129   15.024235
 C   30.992643   -3.590507   16.421054
 C   31.303218   -3.056382   17.666611
 C   32.540532   -2.472499   17.871508
 C   33.471348   -2.439848   16.851986
 C   33.185361   -3.014893   15.611454
 N   34.156248   -2.945707   14.625255
 C   34.328651   -3.661640   13.480246
 N   35.378459   -3.260593   12.761344
 C   35.555024   -3.972455   11.655847
 N   36.509425   -3.836955   10.695948
 C   36.262994   -4.824772    9.774828
 N   35.248073   -5.568200   10.068631
 C   34.765786   -5.067566   11.251983
 C   33.712460   -5.411572   12.116123
 O   32.974283   -6.477406   11.856796
 C   31.920607   -6.826223   12.745611
 C   30.591323   -6.200909   12.305641
 C   30.246980   -6.565330   10.857085
 C   29.835714   -8.026993   10.705107
 C   28.671292   -8.359559   11.632136
 C   29.046021   -8.066213   13.081099
 C   29.451033   -6.603523   13.244964
 N   33.502460   -4.674746   13.198294
 C   31.932250   -3.581827   15.398057
 H   28.134097   -4.164611   14.825816
 H   29.541820   -3.273189   14.347249
 H   30.565794   -3.095807   18.452678
 H   32.782092   -2.039838   18.830713
 H   34.435571   -1.978442   17.012039
 H   34.926245   -2.313647   14.799442
 H   37.239555   -3.145730   10.679111
 H   36.868755   -4.950285    8.899185
 H   31.872510   -7.915216   12.706897
 H   32.171345   -6.503384   13.760578
 H   30.723649   -5.112691   12.358084
 H   31.108988   -6.357833   10.220622
 H   29.421917   -5.928996   10.526635
 H   29.549518   -8.212899    9.667825
 H   30.682605   -8.675853   10.932152
 H   27.803461   -7.756312   11.353950
 H   28.395623   -9.410402   11.523595
 H   28.197857   -8.276647   13.735742
 H   29.865126   -8.718294   13.387509
 H   29.737681   -6.414118   14.281005
 H   28.584237   -5.979121   13.014958
 H   31.722754   -4.032866   14.442567
