55 
5m53_ligand_xtb.xyz
 C   35.437681   -3.948517   12.223001
 C   34.525478   -4.944461   11.789541
 C   33.281811   -4.998421   12.417937
 C   36.389000   -5.026065   10.665423
 N   33.024217   -4.132830   13.379130
 N   33.695378   -2.385373   14.769799
 N   35.163774   -3.096147   13.205507
 C   29.935893   -7.010908   10.856687
 C   29.042928   -8.195607   10.499561
 C   27.740684   -8.144115   11.293162
 C   28.028330   -8.117095   12.791825
 C   28.920221   -6.930556   13.141947
 C   30.230705   -6.999238   12.356758
 C   31.116918   -5.823429   12.750487
 O   32.364623   -5.900286   12.060733
 N   35.174084   -5.619186   10.785796
 N   36.583865   -4.040098   11.489323
 C   33.960269   -3.245533   13.744271
 C   32.639585   -2.352918   15.663744
 C   31.473684   -3.091230   15.481479
 C   32.748488   -1.545861   16.798963
 C   31.731218   -1.512400   17.733360
 C   30.581612   -2.265103   17.558173
 C   30.451181   -3.048206   16.416000
 C   29.285162   -3.958548   16.191737
 O   29.452022   -5.159333   16.048282
 N   28.054133   -3.396547   16.153268
 C   26.894642   -4.243197   15.997951
 C   27.784954   -1.982182   16.170559
 H   37.116708   -5.352388    9.947581
 H   34.486078   -1.790113   14.979668
 H   30.872613   -7.064901   10.299152
 H   29.433655   -6.080150   10.581494
 H   28.827066   -8.187895    9.428834
 H   29.568036   -9.126007   10.727902
 H   27.184519   -7.245469   11.015934
 H   27.121404   -9.009383   11.047019
 H   27.091663   -8.053723   13.349202
 H   28.527208   -9.044245   13.082017
 H   29.127971   -6.907127   14.212595
 H   28.403081   -6.001994   12.887761
 H   30.757458   -7.923283   12.616840
 H   31.297626   -5.836143   13.830050
 H   30.633304   -4.873399   12.492914
 H   34.808978   -6.395934   10.260845
 H   31.373075   -3.713204   14.612099
 H   33.642957   -0.959056   16.952504
 H   31.838971   -0.897482   18.614827
 H   29.804167   -2.255581   18.307141
 H   27.229178   -5.278586   16.003205
 H   26.195167   -4.078559   16.820468
 H   26.387275   -4.031712   15.053294
 H   28.708215   -1.416196   16.078738
 H   27.130344   -1.727136   15.332603
 H   27.279746   -1.694943   17.097911
