55 
5m53_ligand_ani-2x.xyz
 C   35.190700   -3.696238   12.207661
 C   34.275406   -4.657591   11.775301
 C   33.113309   -4.824221   12.531079
 C   36.019744   -4.561245   10.457333
 N   32.917858   -4.077251   13.603106
 N   33.659994   -2.419139   15.063333
 N   35.004173   -2.941973   13.297689
 C   29.678210   -6.789121   11.163378
 C   28.778532   -7.942885   10.714966
 C   27.623943   -8.167832   11.694692
 C   28.147911   -8.398175   13.114536
 C   29.051652   -7.247947   13.562857
 C   30.206866   -7.007606   12.584367
 C   31.049211   -5.827852   13.042483
 O   32.200932   -5.728932   12.184336
 N   34.833785   -5.207830   10.637259
 N   36.276522   -3.654244   11.364493
 C   33.860840   -3.182871   13.939542
 C   32.626601   -2.490297   16.010295
 C   31.373161   -3.040656   15.733998
 C   32.860633   -1.938015   17.274200
 C   31.877812   -1.982594   18.255263
 C   30.641077   -2.558642   17.988986
 C   30.383581   -3.061388   16.715330
 C   29.038097   -3.688000   16.464456
 O   28.467492   -4.314465   17.346320
 N   28.477050   -3.536479   15.213003
 C   27.198864   -4.201230   15.027614
 C   28.614605   -2.311790   14.441236
 H   36.670084   -4.800334    9.626572
 H   34.445072   -1.823869   15.283376
 H   30.515754   -6.657773   10.471186
 H   29.105670   -5.848444   11.144512
 H   28.395258   -7.755687    9.704692
 H   29.381854   -8.860724   10.654923
 H   26.969808   -7.283456   11.690745
 H   27.005857   -9.014316   11.371427
 H   27.316006   -8.525994   13.817398
 H   28.723792   -9.334768   13.136794
 H   29.450478   -7.444457   14.567398
 H   28.454698   -6.324342   13.638464
 H   30.851922   -7.898799   12.579239
 H   31.386563   -5.944812   14.080413
 H   30.478013   -4.891330   12.974252
 H   34.448299   -5.937469   10.059044
 H   31.180599   -3.474759   14.761574
 H   33.826880   -1.488444   17.490919
 H   32.082780   -1.567519   19.238884
 H   29.870126   -2.621887   18.751030
 H   27.235323   -5.184117   15.499966
 H   26.368432   -3.636382   15.476648
 H   27.006896   -4.313956   13.955565
 H   29.584012   -1.843261   14.609067
 H   28.520889   -2.547314   13.374937
 H   27.835375   -1.577280   14.698865
