55 
5m53_ligand_aiqm1.xyz
 C   35.281261   -3.906600   12.349055
 C   34.374668   -4.888775   11.945950
 C   33.148435   -4.953895   12.601769
 C   36.214953   -4.980043   10.772535
 N   32.875830   -4.108227   13.578670
 N   33.573013   -2.291905   14.897056
 N   35.025578   -3.034031   13.338486
 C   29.747374   -6.695119   10.916752
 C   28.829667   -7.792461   10.380151
 C   27.573882   -7.925100   11.239234
 C   27.942641   -8.188284   12.697796
 C   28.862989   -7.091878   13.227388
 C   30.125065   -6.961345   12.373762
 C   31.010285   -5.872729   12.942687
 O   32.256182   -5.875038   12.225246
 N   34.998859   -5.572425   10.922553
 N   36.430758   -3.979715   11.599052
 C   33.831637   -3.196918   13.896317
 C   32.561042   -2.199565   15.861215
 C   31.386202   -2.952795   15.854351
 C   32.754122   -1.260121   16.884442
 C   31.809463   -1.098312   17.891672
 C   30.652899   -1.865925   17.896602
 C   30.438260   -2.779974   16.864348
 C   29.200540   -3.624871   16.943558
 O   28.816562   -4.054550   18.021449
 N   28.546099   -3.937974   15.777326
 C   27.356327   -4.761109   15.942848
 C   28.496291   -3.017436   14.650881
 H   36.918112   -5.323311   10.031745
 H   34.364799   -1.688983   15.048561
 H   30.645203   -6.607486   10.298168
 H   29.227808   -5.730512   10.861000
 H   28.560901   -7.585346    9.342360
 H   29.368911   -8.745706   10.384960
 H   26.997562   -6.995964   11.176733
 H   26.933474   -8.722852   10.857892
 H   27.044425   -8.253248   13.313861
 H   28.450517   -9.155363   12.771371
 H   29.129452   -7.281609   14.270736
 H   28.328721   -6.132789   13.202732
 H   30.679016   -7.906809   12.422102
 H   31.210931   -6.039844   14.002457
 H   30.541736   -4.892015   12.828451
 H   34.632015   -6.351412   10.408867
 H   31.227390   -3.682064   15.077815
 H   33.660333   -0.665228   16.890230
 H   31.991157   -0.378724   18.679831
 H   29.922109   -1.781538   18.687093
 H   27.585844   -5.588352   16.607193
 H   26.531247   -4.189683   16.378093
 H   27.050426   -5.148345   14.972283
 H   29.309805   -2.302865   14.702580
 H   28.577452   -3.572358   13.711406
 H   27.548771   -2.468472   14.645330
