43 
5m55_ligand_aiqm1.xyz
 C   28.780446   10.559182  -22.065778
 C   25.577692    7.943561  -20.248237
 C   26.831910    9.133278  -22.107451
 C   27.888990    9.720285  -21.401504
 C   26.855455   12.635714  -19.580015
 C   26.343157   11.581781  -18.614073
 N   27.267050   11.330975  -17.504185
 C   27.854876   12.495176  -16.851296
 C   26.854792   13.309930  -16.034231
 C   27.093565   10.248376  -16.699269
 C   26.471536    9.042264  -16.857836
 C   25.849217    8.373983  -17.991363
 N   26.166127    8.650041  -19.259612
 N   25.892301    8.259299  -21.547730
 C   28.653532   10.825990  -23.425055
 C   27.607473   10.235969  -24.128050
 C   26.708976    9.398483  -23.477937
 N   24.686901    6.963028  -20.138553
 C   24.368222    6.676128  -18.868797
 C   24.921244    7.347930  -17.774162
 N   24.335786    6.761295  -16.665971
 C   23.485932    5.809939  -17.147013
 N   23.472535    5.715927  -18.455483
 H   29.597057   11.005544  -21.510617
 H   27.993706    9.527144  -20.345297
 H   26.204069   12.654687  -20.452781
 H   26.872665   13.639346  -19.146955
 H   27.861948   12.381324  -19.913098
 H   25.361402   11.874766  -18.215518
 H   26.217445   10.658930  -19.156092
 H   28.663587   12.136382  -16.208263
 H   28.318323   13.118211  -17.614588
 H   27.345140   14.169053  -15.574282
 H   26.046600   13.675768  -16.666586
 H   26.412555   12.704828  -15.240136
 H   27.558856   10.373285  -15.724685
 H   26.492821    8.436630  -15.960323
 H   25.339110    7.733969  -22.203432
 H   29.354926   11.476691  -23.927874
 H   27.484178   10.422427  -25.187250
 H   25.898279    8.939119  -24.033308
 H   24.453165    7.022618  -15.705540
 H   22.892452    5.202746  -16.482773
