41 
5m5d_ligand_aiqm1.xyz
 C   -0.939686   -0.618397    0.295144
 C   -1.622830   -1.725340   -0.507166
 C   -2.331347   -1.147869   -1.718431
 C   -3.230337    0.005044   -1.300470
 C   -2.418693    1.053475   -0.559760
 C   -3.265913    2.190436   -0.035560
 O   -2.632771   -2.359502    0.272581
 O   -3.077744   -2.129680   -2.420626
 O   -3.810175    0.619951   -2.439870
 O   -1.806529    0.449730    0.590265
 O   -2.481821    3.139128    0.667659
 C    3.008490    1.886766   -0.577519
 C    3.535179    0.289105    1.072547
 C    2.291405   -0.480995    0.642187
 C    4.728544   -0.609429    1.349282
 C    1.161358    0.491186    0.322733
 O    4.423735   -1.411534    2.490774
 O    3.994605    1.170423    0.042651
 O    1.802237   -1.356614    1.642687
 O    0.169769   -0.189107   -0.451650
 C    1.699826    1.645046   -0.471776
 H   -0.631138   -1.002813    1.270979
 H   -0.871330   -2.451743   -0.825975
 H   -1.582366   -0.774295   -2.415997
 H   -4.014288   -0.379604   -0.631889
 H   -1.641742    1.450383   -1.227989
 H   -4.057942    1.784789    0.606435
 H   -3.727157    2.712034   -0.872114
 H   -2.208760   -2.845487    0.981009
 H   -3.523538   -2.665081   -1.756730
 H   -4.086729   -0.093624   -3.022297
 H   -2.059125    2.669676    1.390655
 H    3.420280    2.694447   -1.165669
 H    3.297252    0.865492    1.976446
 H    2.543839   -1.048877   -0.265512
 H    5.602659    0.015867    1.536230
 H    4.921234   -1.241931    0.477328
 H    0.712578    0.839620    1.257252
 H    5.153574   -2.011284    2.645210
 H    2.547738   -1.715722    2.135274
 H    1.007663    2.286133   -0.998428
