44 
5m6u_ligand_aiqm1.xyz
 N   -3.407892    1.260698   -0.638455
 N   -2.256245    1.712708   -0.054095
 C   -1.392856    0.803579    0.257308
 N   -1.548559   -0.548864    0.008948
 C   -2.719955   -1.075499   -0.599308
 C   -3.688906   -0.064150   -0.915817
 C   -4.942742   -0.107721   -1.499219
 C   -5.411804    1.220046   -1.566080
 C   -4.443290    2.047776   -1.026758
 O   -2.820150   -2.267540   -0.807517
 C   -0.480203   -1.482714    0.292471
 C   -0.278916   -1.944131    1.591091
 C    0.757524   -2.842293    1.841078
 C    1.571933   -3.284273    0.800155
 C    1.349657   -2.830733   -0.499294
 C    0.323984   -1.925061   -0.757223
 C   -0.103371    1.310398    0.888789
 N    0.683907    1.943809   -0.178010
 C    1.801391    1.324166   -0.669606
 N    1.940027    1.292596   -2.005134
 C    3.042660    0.708671   -2.468932
 N    4.017032    0.117528   -1.781191
 C    3.895208    0.160273   -0.445467
 C    2.799126    0.805468    0.175406
 C    2.789132    0.913725    1.595986
 N    2.858039    0.986818    2.753353
 N    4.851644   -0.451538    0.280490
 C   -0.387436    2.256966    2.051533
 H   -5.439184   -1.003262   -1.831319
 H   -6.356067    1.550111   -1.964269
 H   -4.392156    3.113134   -0.884340
 H   -0.920718   -1.596039    2.391303
 H    0.923038   -3.196650    2.849441
 H    2.369915   -3.985485    1.001026
 H    1.971481   -3.182964   -1.311840
 H    0.129748   -1.568991   -1.762289
 H    0.450179    0.457871    1.263642
 H    0.108333    2.339154   -0.910001
 H    3.153643    0.699010   -3.544781
 H    5.663544   -0.775207   -0.215221
 H    4.891353   -0.328984    1.277342
 H   -0.990480    1.744455    2.802916
 H    0.558289    2.550117    2.503754
 H   -0.919257    3.142622    1.709835
