56 
5maj_ligand_ani-2x.xyz
 C   -5.937755   12.802079   14.529245
 C   -7.298473    8.328476   12.914072
 C   -5.779417   12.505712   16.961937
 C   -9.339949    6.443128   17.050860
 C   -8.520958    9.222246   19.434689
 C   -6.278766   14.262030   14.795410
 C   -9.723499    4.990307   17.421832
 C   -6.140238   13.976615   17.102697
 C   -7.210555    8.717415   16.500363
 N   -7.373133    7.955333   17.616998
 O   -5.681769   14.718858   15.991290
 N   -6.301054   12.010175   15.694730
 N   -7.110680    8.937266   11.821688
 C   -7.255335    8.585685   18.930126
 C   -7.787431    5.708657   18.718833
 C   -8.575669    4.457014   18.317356
 C   -7.858668    6.582530   17.462443
 N   -6.881507   10.006983   16.673164
 N   -7.366629    8.130666   15.296482
 C   -7.141866    8.936658   14.262433
 N   -6.788669   10.218147   14.304414
 C   -6.657248   10.706453   15.554216
 N   -9.278005    8.637516   20.406433
 C  -10.296579    9.468894   20.608879
 N  -10.215626   10.574912   19.771680
 C   -9.076566   10.407557   19.018170
 C  -11.147416   11.584844   19.772287
 C  -12.199127   11.514460   20.627883
 C  -12.321360   10.392446   21.511818
 C  -11.395909    9.391089   21.506595
 H   -4.862484   12.702968   14.319147
 H   -6.488149   12.431187   13.663405
 H   -7.597956    7.277803   12.916785
 H   -6.210236   11.924876   17.780151
 H   -4.685767   12.389213   16.999108
 H   -9.939443    7.151272   17.633190
 H   -9.485051    6.669223   15.990810
 H   -7.372442   14.383295   14.846153
 H   -5.898263   14.896766   13.989284
 H   -9.842499    4.363371   16.531731
 H  -10.682848    4.976321   17.949967
 H   -5.662376   14.404916   17.988852
 H   -7.230992   14.085393   17.208647
 H   -6.835661    9.908779   12.027392
 H   -6.937748    7.828602   19.652051
 H   -6.451616    9.327222   18.868992
 H   -6.755119    5.498337   19.026355
 H   -8.307686    6.203250   19.548436
 H   -7.933315    3.777191   17.744158
 H   -8.943597    3.894162   19.181946
 H   -7.243733    6.113218   16.684095
 H   -8.785268   11.110508   18.250707
 H  -10.972729   12.392625   19.069042
 H  -12.941330   12.306659   20.638597
 H  -13.167682   10.346043   22.193468
 H  -11.462449    8.530752   22.163106
