56 
5maj_ligand_aiqm1.xyz
 C   -5.938464   12.807742   14.583095
 C   -7.301193    8.303812   12.947472
 C   -5.835812   12.511619   16.998742
 C   -9.345310    6.567047   17.160319
 C   -8.413926    9.192303   19.415119
 C   -6.454227   14.215930   14.831096
 C   -9.812449    5.140037   17.518804
 C   -6.353934   13.932353   17.146213
 C   -7.087223    8.668021   16.532663
 N   -7.259618    7.908650   17.633516
 O   -5.953908   14.736498   16.051544
 N   -6.296907   11.978450   15.725441
 N   -7.175278    8.937879   11.848498
 C   -7.146393    8.539228   18.952301
 C   -7.764166    5.674417   18.714328
 C   -8.639238    4.494636   18.292893
 C   -7.844972    6.565247   17.484950
 N   -6.716300    9.948084   16.712182
 N   -7.283779    8.081989   15.326158
 C   -7.098388    8.897976   14.298606
 N   -6.759097   10.187562   14.336562
 C   -6.577380   10.660272   15.587300
 N   -9.243675    8.600259   20.327115
 C  -10.251194    9.448877   20.491758
 N  -10.094528   10.579163   19.700897
 C   -8.912441   10.411683   19.010203
 C  -11.005727   11.604778   19.685672
 C  -12.110247   11.522117   20.475285
 C  -12.308800   10.377312   21.304688
 C  -11.400573    9.358415   21.316573
 H   -4.851055   12.822824   14.455506
 H   -6.389328   12.386083   13.688997
 H   -7.576262    7.253335   12.955130
 H   -6.214802   11.883965   17.799774
 H   -4.741164   12.505206   17.033418
 H   -9.834462    7.303495   17.803245
 H   -9.537522    6.842556   16.124040
 H   -7.552056   14.211187   14.852687
 H   -6.117179   14.892329   14.047253
 H  -10.051940    4.557694   16.629215
 H  -10.711400    5.174148   18.133231
 H   -5.944399   14.399956   18.040300
 H   -7.450546   13.919777   17.219291
 H   -6.915029    9.900963   12.073858
 H   -6.841672    7.790699   19.677853
 H   -6.353199    9.282980   18.880382
 H   -6.740248    5.389685   18.967394
 H   -8.211181    6.187772   19.566526
 H   -8.068966    3.837830   17.631725
 H   -8.976034    3.896332   19.137802
 H   -7.307187    6.079396   16.666763
 H   -8.544692   11.137113   18.304506
 H  -10.781579   12.430592   19.028344
 H  -12.828960   12.327778   20.463601
 H  -13.190129   10.324117   21.925114
 H  -11.520160    8.477935   21.928654
