56 
5maj_ligand_xtb.xyz
 C   -5.465744   12.759157   14.506249
 C   -7.082660    8.358637   12.935106
 C   -5.612008   12.604872   16.911013
 C   -9.438358    6.987499   17.085963
 C   -8.363283    9.153439   19.474860
 C   -6.502433   13.888013   14.556452
 C  -10.188111    5.878521   17.838101
 C   -6.649928   13.733665   16.876690
 C   -6.966873    8.783250   16.512245
 N   -7.241220    8.060857   17.607216
 O   -6.434972   14.590283   15.778771
 N   -5.647683   11.899348   15.652136
 N   -6.822923    8.908229   11.835796
 C   -7.068134    8.658846   18.916701
 C   -7.949170    5.876392   18.652817
 C   -9.094634    4.925884   18.322357
 C   -7.942648    6.800981   17.436307
 N   -6.472484   10.016113   16.666874
 N   -7.189170    8.210717   15.314413
 C   -6.860750    8.948614   14.270812
 N   -6.358486   10.175431   14.307795
 C   -6.182655   10.669870   15.543259
 N   -9.060959    8.450594   20.393547
 C  -10.161412    9.141876   20.628269
 N  -10.184634   10.307651   19.856495
 C   -9.038013   10.305595   19.128059
 C  -11.212543   11.185370   19.920278
 C  -12.258960   10.931537   20.752670
 C  -12.274153    9.763852   21.544379
 C  -11.236957    8.875902   21.485936
 H   -4.457945   13.186341   14.548907
 H   -5.581791   12.164635   13.601596
 H   -7.508503    7.360995   12.934089
 H   -5.826630   11.899630   17.712562
 H   -4.612907   13.033493   17.044262
 H   -9.775633    7.974381   17.402822
 H   -9.580564    6.920804   16.008775
 H   -7.508928   13.461265   14.424648
 H   -6.315956   14.623581   13.772896
 H  -10.922825    5.378493   17.208733
 H  -10.707084    6.298602   18.700548
 H   -6.578755   14.357250   17.769315
 H   -7.658988   13.295271   16.815540
 H   -6.424219    9.842755   11.948746
 H   -6.634917    7.922852   19.595597
 H   -6.377146    9.493898   18.787216
 H   -6.996724    5.367656   18.795047
 H   -8.209918    6.430990   19.553279
 H   -8.802634    4.245415   17.520659
 H   -9.408401    4.335692   19.181722
 H   -7.449113    6.295240   16.600002
 H   -8.780128   11.081959   18.437812
 H  -11.150083   12.061865   19.292743
 H  -13.079270   11.628420   20.804803
 H  -13.113841    9.581196   22.195948
 H  -11.211442    7.974424   22.074766
