32 
5mf6_ligand_aiqm1.xyz
 N    4.451702   -0.407649   -0.777040
 C    3.141950   -0.483980   -1.041683
 C    4.796807   -0.101553    0.476982
 C    3.875391    0.136626    1.493490
 C    2.520653    0.054022    1.199697
 C    2.134329   -0.264078   -0.103499
 C    0.678749   -0.360270   -0.509373
 N   -0.074833   -1.174842    0.454306
 C    0.035379    0.985391   -0.599112
 C   -1.469740   -1.192396    0.310292
 C   -2.128389   -0.029047   -0.120684
 N   -1.326510    1.086828   -0.415909
 C   -3.511295   -0.005963   -0.246012
 C   -1.701522    2.404906   -0.554176
 C   -0.571438    3.138129   -0.820479
 C    0.533140    2.239824   -0.848797
 C   -4.259702   -1.135298    0.084521
 C   -3.618027   -2.283328    0.533220
 C   -2.228970   -2.312997    0.639136
 H    2.879464   -0.729884   -2.067159
 H    5.860489   -0.044389    0.674096
 H    4.220275    0.381817    2.489465
 H    1.763517    0.228076    1.952725
 H    0.639549   -0.830860   -1.510107
 H    0.317393   -2.099564    0.550411
 H   -4.003238    0.889597   -0.600917
 H   -2.725930    2.707136   -0.421712
 H   -0.542976    4.203975   -0.972778
 H    1.567194    2.479777   -1.026160
 H   -5.335821   -1.109047   -0.010200
 H   -4.188463   -3.162875    0.797319
 H   -1.729426   -3.208585    0.989838
