24 
5mgf_ligand_aiqm1.xyz
 C -105.321682   36.895837   25.790972
 C -105.430074   38.251734   26.470312
 C -106.856503   38.761483   26.550621
 O -107.794777   38.130088   26.109345
 C -107.040875   40.073707   27.197925
 C -106.034273   40.870680   27.732222
 N -106.598765   41.993136   28.234128
 C -107.960730   41.950236   28.040388
 C -108.264549   40.763919   27.396214
 C -108.830693   43.036055   28.485327
 O -110.028615   43.077597   28.355527
 O -108.111176   44.016363   29.076651
 C -108.910143   45.112645   29.535758
 H -104.283048   36.567642   25.754011
 H -105.902538   36.147510   26.327108
 H -105.706972   36.941371   24.773974
 H -105.028964   38.208220   27.487052
 H -104.833466   38.999195   25.939363
 H -104.972290   40.700914   27.779491
 H -106.127145   42.756860   28.684024
 H -109.245255   40.430664   27.102256
 H -108.217178   45.818006   29.983301
 H -109.436264   45.568096   28.700650
 H -109.634026   44.767043   30.269380
