35 
5mih_ligand_ani-2x.xyz
 O   -0.184751   -2.768396   -1.769164
 C   -0.769536   -1.885006   -0.831489
 C   -2.102333   -1.442649   -1.411990
 O   -2.972573   -2.551899   -1.536898
 C    0.121239   -0.686037   -0.532064
 O   -0.542472    0.181550    0.360751
 C   -1.766501    0.679427   -0.156747
 C   -2.319494    1.652746    0.852564
 O   -3.427854    2.414546    0.386442
 C   -2.205853    3.094885    0.633103
 C   -2.762506   -0.446693   -0.464798
 O   -3.096817   -1.107192    0.734956
 O    1.277158   -1.176475    0.082954
 C    2.335457   -0.329697    0.298902
 C    3.503335   -0.945470    0.753919
 C    4.633256   -0.178238    0.995501
 C    4.610656    1.199823    0.788793
 C    3.441617    1.801919    0.341438
 C    2.295663    1.047997    0.096171
 H    0.624825   -3.105435   -1.364230
 H   -0.969763   -2.391206    0.122932
 H   -1.935272   -0.973531   -2.396154
 H   -2.441053   -3.273058   -1.906441
 H    0.392811   -0.154077   -1.461689
 H   -1.582122    1.224660   -1.099693
 H   -2.408192    1.277887    1.872283
 H   -1.694113    3.466450   -0.255448
 H   -2.212527    3.772834    1.485558
 H   -3.653085   -0.006477   -0.941249
 H   -3.535549   -1.926537    0.459290
 H    3.508187   -2.020448    0.912122
 H    5.541698   -0.660171    1.347975
 H    5.498416    1.796985    0.977600
 H    3.411633    2.877165    0.178338
 H    1.386913    1.539420   -0.231837
