80 
5mim_ligand_aiqm1.xyz
 N    2.139378    4.574626   -1.044895
 C    0.919433    4.481085   -0.655261
 N    0.380762    5.504066    0.129745
 N    0.020863    3.463140   -0.882639
 C    0.374839    2.190852   -1.480308
 C    1.266015    1.350634   -0.544381
 C    0.490215    0.831285    0.666795
 O    1.800908    0.313278   -1.366497
 C    2.770838   -0.503276   -0.860048
 C    2.976773   -1.689982   -1.565403
 C    3.916142   -2.608078   -1.131296
 C    4.699051   -2.345315   -0.001224
 C    4.523792   -1.142058    0.672108
 C    3.554132   -0.221774    0.260026
 N    5.629908   -3.316853    0.465239
 C    5.294380   -4.143056    1.535689
 N    4.506220   -3.826864    2.499123
 N    5.963729   -5.349929    1.535558
 C   -0.902096    1.433121   -1.849024
 C   -1.692346    0.908886   -0.639268
 N   -2.289487    1.998019    0.133766
 C   -3.518652    2.559942   -0.251485
 C   -4.160200    3.430386    0.637151
 C   -5.345815    4.066215    0.294779
 C   -5.916650    3.868793   -0.965327
 C   -5.287996    2.993848   -1.847335
 C   -4.108165    2.336544   -1.501537
 N   -7.123796    4.520058   -1.322130
 C   -7.188748    5.923331   -1.395959
 N   -6.284759    6.769498   -1.091975
 N   -8.412597    6.341777   -1.904117
 C   -0.796643    0.090236    0.293917
 O   -0.566148   -1.145215   -0.378054
 C    0.048276   -2.162011    0.307353
 C    0.221032   -2.203485    1.691830
 C    0.879559   -3.289633    2.266576
 C    0.512329   -3.221172   -0.469711
 C    1.188000   -4.287950    0.108816
 C    1.375839   -4.336718    1.494071
 N    2.116630   -5.345936    2.154707
 C    2.272786   -6.644328    1.710793
 N    1.589858   -7.308924    0.855135
 N    3.350076   -7.276685    2.352461
 H    2.439722    3.752005   -1.557336
 H    1.005228    6.296768    0.123881
 H   -0.556488    5.767637   -0.133518
 H   -0.833246    3.464133   -0.345402
 H    0.946993    2.371607   -2.391810
 H    2.080284    1.982692   -0.180513
 H    0.235891    1.682213    1.298399
 H    1.127329    0.173905    1.248824
 H    2.352079   -1.889147   -2.424928
 H    4.038110   -3.548811   -1.658011
 H    5.141034   -0.927182    1.536762
 H    3.428297    0.696799    0.816873
 H    6.182296   -3.756564   -0.251837
 H    4.147936   -2.886146    2.350574
 H    5.520236   -6.033244    2.131723
 H    6.165221   -5.727655    0.623811
 H   -1.532802    2.109016   -2.424610
 H   -0.650353    0.583733   -2.486013
 H   -2.470613    0.233875   -1.008281
 H   -2.268676    1.808900    1.125183
 H   -3.724988    3.610771    1.613237
 H   -5.825742    4.734593    0.999142
 H   -5.723104    2.813936   -2.824779
 H   -3.655389    1.662016   -2.212790
 H   -7.618050    4.073057   -2.079234
 H   -5.411809    6.301332   -0.869329
 H   -8.513966    7.341398   -1.817946
 H   -9.205039    5.833298   -1.544622
 H   -1.364165   -0.105123    1.212316
 H   -0.132554   -1.404619    2.329635
 H    1.041998   -3.313247    3.337639
 H    0.379965   -3.165548   -1.541945
 H    1.580890   -5.078230   -0.520523
 H    2.938537   -4.965598    2.626962
 H    0.849555   -6.742823    0.453937
 H    3.302879   -8.271974    2.188582
 H    3.395341   -7.058050    3.338383
