48 
5mme_ligand_ani-2x.xyz
 C   10.097458  -17.490287    7.709436
 C   11.641230  -12.825640   13.690535
 C    5.510706  -14.942321   10.353865
 C   11.213775  -11.091830    1.765236
 C   10.517019  -14.762547    2.721526
 C   10.503364  -15.595810    3.830760
 C   11.425123  -13.073065    8.905203
 C    9.412028  -13.798508    7.802382
 C    9.485448  -13.677296   10.219367
 C   11.144334  -12.916223    4.126653
 C   10.207278  -17.090117    6.253453
 C   10.855995  -12.556346    1.629048
 C   11.604144  -12.920521   11.358370
 C    7.376971  -14.408931    9.057334
 C   10.738182  -13.366990    7.724272
 C   10.843567  -13.413571    2.859425
 C   10.805285  -13.239010   10.139939
 C    8.794817  -13.946051    9.045158
 C   11.107747  -13.725271    5.257406
 C   10.814984  -15.093332    5.094527
 N   11.416453  -13.185050    6.511172
 O   10.582458  -13.035529    0.546022
 O   12.748721  -12.527253   11.340044
 O    6.738663  -14.672482    8.063012
 O   10.915698  -13.116617   12.494586
 O    6.870212  -14.506693   10.298178
 O   10.917962  -15.859617    6.208420
 H   11.090361  -17.625708    8.147227
 H    9.568304  -16.720698    8.282021
 H    9.541563  -18.429226    7.795849
 H   12.528923  -13.458279   13.763288
 H   11.952892  -11.778649   13.704108
 H   10.952278  -13.033118   14.508602
 H    4.862191  -14.245913    9.816997
 H    5.407109  -15.934172    9.907550
 H    5.254633  -14.968405   11.412631
 H   12.217968  -10.972877    2.186878
 H   11.178093  -10.634224    0.775445
 H   10.509624  -10.579041    2.429867
 H   10.276007  -15.144555    1.734589
 H   10.255635  -16.647326    3.709977
 H   12.454296  -12.724101    8.883082
 H    8.836814  -14.021038    6.908641
 H    9.006180  -13.799898   11.181867
 H   11.402705  -11.867060    4.254362
 H    9.210619  -16.961108    5.808650
 H   10.747912  -17.850144    5.671366
 H   12.049668  -12.399550    6.493273
