49 
5mmp_ligand_aiqm1.xyz
 O   46.891709  -16.340544   -9.663682
 C   47.708350  -15.791967  -10.385531
 N   48.607351  -14.874370   -9.923502
 C   48.494487  -14.368372   -8.562525
 C   47.504592  -13.217409   -8.436823
 N   47.832475  -16.045425  -11.738760
 C   47.106016  -16.948917  -12.510752
 C   46.135096  -17.784584  -12.014037
 C   45.464467  -18.652094  -12.903847
 C   44.467698  -19.590137  -12.472036
 C   44.016895  -19.702372  -11.060000
 C   43.995059  -20.949095  -10.427266
 C   43.535017  -21.043791   -9.117588
 N   43.096198  -20.002346   -8.402446
 C   43.115139  -18.812767   -9.013599
 C   43.553369  -18.610200  -10.320430
 C   43.917011  -20.434770  -13.403313
 C   44.249020  -20.375634  -14.776361
 C   45.189015  -19.475303  -15.221979
 C   45.828834  -18.612712  -14.274050
 C   46.859706  -17.717788  -14.645268
 N   47.483056  -16.913188  -13.812670
 N   45.544777  -19.346903  -16.572864
 C   45.219718  -20.256372  -17.588197
 C   45.347728  -21.639718  -17.434212
 C   45.051999  -22.461470  -18.516142
 C   44.657771  -21.888670  -19.719854
 N   44.554358  -20.566381  -19.894332
 C   44.829151  -19.786160  -18.849491
 H   49.102660  -14.311157  -10.591947
 H   49.488706  -14.055039   -8.238224
 H   48.180603  -15.204371   -7.943194
 H   47.795017  -12.375734   -9.069321
 H   46.508173  -13.544824   -8.729685
 H   47.461797  -12.868646   -7.404865
 H   48.543811  -15.566211  -12.265698
 H   45.916864  -17.771941  -10.963018
 H   44.337572  -21.836656  -10.946665
 H   43.520148  -22.005418   -8.617456
 H   42.765055  -17.970704   -8.427732
 H   43.546000  -17.613002  -10.743066
 H   43.169281  -21.153167  -13.084483
 H   43.742799  -21.032253  -15.469276
 H   47.211120  -17.689009  -15.669392
 H   45.630950  -18.396853  -16.886605
 H   45.667054  -22.054749  -16.486463
 H   45.136319  -23.536456  -18.426189
 H   44.422020  -22.504603  -20.577825
 H   44.751389  -18.713947  -19.016340
