49 
5mmp_ligand_ani-2x.xyz
 O   46.508038  -16.262905   -9.756273
 C   47.327597  -15.687914  -10.454224
 N   48.130817  -14.678738   -9.972850
 C   48.152346  -14.395492   -8.544323
 C   48.532825  -12.944280   -8.294534
 N   47.533775  -15.948339  -11.803080
 C   46.844862  -16.868297  -12.597500
 C   46.034700  -17.842003  -12.065989
 C   45.326552  -18.711626  -12.925426
 C   44.408471  -19.714295  -12.464703
 C   43.999764  -19.824045  -11.048083
 C   44.008502  -21.059163  -10.398163
 C   43.588747  -21.135021   -9.075023
 N   43.138061  -20.094415   -8.371923
 C   43.109652  -18.919196   -9.003731
 C   43.524334  -18.732235  -10.316992
 C   43.873792  -20.591063  -13.387696
 C   44.133096  -20.478753  -14.761421
 C   44.949060  -19.475898  -15.243246
 C   45.575141  -18.576790  -14.320365
 C   46.465495  -17.549928  -14.726443
 N   47.078823  -16.714510  -13.916893
 N   45.159572  -19.278318  -16.608286
 C   45.134880  -20.241266  -17.617601
 C   45.520804  -21.564840  -17.407892
 C   45.500359  -22.443965  -18.483861
 C   45.097606  -21.979021  -19.729798
 N   44.738594  -20.711414  -19.948634
 C   44.770075  -19.872934  -18.919254
 H   48.978414  -14.470825  -10.481823
 H   48.838258  -15.074847   -8.017413
 H   47.149183  -14.608514   -8.169491
 H   49.547812  -12.736848   -8.653666
 H   47.840808  -12.273443   -8.812767
 H   48.504025  -12.711914   -7.224977
 H   48.082929  -15.301778  -12.352337
 H   45.968669  -17.917705  -10.991889
 H   44.364167  -21.950951  -10.908084
 H   43.606055  -22.092503   -8.556869
 H   42.740679  -18.074461   -8.426210
 H   43.491912  -17.744244  -10.769749
 H   43.202133  -21.374625  -13.046955
 H   43.660313  -21.173955  -15.448317
 H   46.699128  -17.429401  -15.782823
 H   45.138918  -18.317658  -16.917747
 H   45.840237  -21.893295  -16.422151
 H   45.790591  -23.482061  -18.350514
 H   45.064977  -22.644956  -20.589537
 H   44.477852  -18.843552  -19.131473
