13 
5mn1_ligand_aiqm1.xyz
 N   -2.321751  -14.128314  -17.696923
 C   -1.613115  -15.199763  -17.338582
 C   -1.102514  -15.375335  -16.042063
 C   -1.331652  -14.385384  -15.104714
 C   -2.060273  -13.253093  -15.469415
 C   -2.528152  -13.180312  -16.771298
 N   -1.347274  -16.122714  -18.340768
 H   -0.532775  -16.262429  -15.794585
 H   -0.946024  -14.493406  -14.099769
 H   -2.258480  -12.456706  -14.767520
 H   -3.102195  -12.324212  -17.103611
 H   -1.975405  -16.032869  -19.124416
 H   -1.230091  -17.073764  -18.031636
