14 
5mnc_ligand_aiqm1.xyz
 C   -1.678165  -15.258323  -17.001516
 C   -2.238289  -13.989225  -17.176709
 C   -2.177907  -13.046612  -16.156561
 C   -1.556493  -13.346873  -14.947432
 C   -0.997729  -14.609935  -14.771693
 C   -1.053385  -15.557977  -15.787023
 N   -1.798863  -16.234876  -18.000910
 H   -2.731968  -13.746504  -18.111255
 H   -2.620871  -12.071333  -16.311780
 H   -1.510323  -12.611753  -14.156964
 H   -0.512702  -14.863817  -13.838008
 H   -0.621179  -16.541009  -15.635873
 H   -1.888578  -15.851500  -18.929214
 H   -1.071047  -16.932163  -17.971863
