14 
5mnc_ligand_ani-2x.xyz
 C   -1.552074  -15.206200  -17.049965
 C   -2.159712  -13.954305  -17.206188
 C   -2.186917  -13.050395  -16.152003
 C   -1.612376  -13.369409  -14.925417
 C   -1.006441  -14.612164  -14.768269
 C   -0.973508  -15.524409  -15.815222
 N   -1.469931  -16.094771  -18.123352
 H   -2.606152  -13.693799  -18.163994
 H   -2.664782  -12.083781  -16.293829
 H   -1.636186  -12.659303  -14.103696
 H   -0.551933  -14.879372  -13.817038
 H   -0.492066  -16.491783  -15.685019
 H   -2.184017  -15.976810  -18.828412
 H   -1.361407  -17.065398  -17.864394
