22 
5mno_ligand_xtb.xyz
 C   -1.787452  -13.672544  -14.723161
 C   -2.472695  -13.078398  -15.952803
 C   -1.558118  -13.257566  -17.170095
 N   -1.246240  -14.649870  -17.375133
 C   -0.552072  -15.236030  -16.249823
 C   -1.407282  -15.129406  -14.984314
 C   -1.920098  -15.479439  -18.225854
 N   -1.636646  -16.722319  -18.230243
 N   -2.803518  -14.870805  -19.119167
 H   -2.447170  -13.604640  -13.855532
 H   -0.884644  -13.096861  -14.504083
 H   -2.685405  -12.019062  -15.797575
 H   -3.419806  -13.595678  -16.126262
 H   -0.611315  -12.737283  -16.978470
 H   -1.990722  -12.822901  -18.071440
 H    0.392904  -14.700363  -16.108799
 H   -0.349501  -16.276230  -16.499753
 H   -2.311203  -15.726136  -15.122407
 H   -0.858866  -15.535147  -14.133379
 H   -2.142589  -17.255932  -18.928572
 H   -3.329283  -15.530708  -19.672978
 H   -3.374178  -14.117982  -18.769558
