13 
5mnx_ligand_aiqm1.xyz
 N   -2.359253  -14.147861  -17.809866
 C   -1.870522  -15.347611  -17.481802
 C   -1.315691  -15.624241  -16.218850
 C   -1.276418  -14.609955  -15.282244
 C   -1.782771  -13.350805  -15.609870
 C   -2.307574  -13.182985  -16.880551
 N   -1.937666  -16.309151  -18.452000
 H   -0.930856  -16.610981  -15.993079
 H   -0.854472  -14.798289  -14.303616
 H   -1.769451  -12.533299  -14.905414
 H   -2.713631  -12.225744  -17.185493
 H   -2.341960  -16.063820  -19.335057
 H   -1.599435  -17.237259  -18.299657
