13 
5mnx_ligand_dft.xyz
 N    0.292609   -1.191214    0.000197
 C    0.898501    0.002479    0.000021
 C    0.185521    1.217876    0.000140
 C   -1.195199    1.166493   -0.000022
 C   -1.840777   -0.071672   -0.000167
 C   -1.042281   -1.206211    0.000058
 N    2.264294   -0.019110   -0.000403
 H    0.714456    2.166197    0.000590
 H   -1.769641    2.088706    0.000135
 H   -2.921635   -0.151513   -0.000581
 H   -1.495526   -2.196041    0.000212
 H    2.728232   -0.911658    0.000495
 H    2.811200    0.822783    0.000412
