13 
5mnx_ligand_ani-2x.xyz
 N   -2.361221  -14.142537  -17.811555
 C   -1.871898  -15.344344  -17.483182
 C   -1.315498  -15.625513  -16.219712
 C   -1.276644  -14.611109  -15.284033
 C   -1.782792  -13.353039  -15.611369
 C   -2.308258  -13.182890  -16.882585
 N   -1.937114  -16.308798  -18.449653
 H   -0.930615  -16.618176  -15.999373
 H   -0.853521  -14.795841  -14.299273
 H   -1.768608  -12.532790  -14.901259
 H   -2.715392  -12.217395  -17.183793
 H   -2.341503  -16.070005  -19.339023
 H   -1.596636  -17.239565  -18.292689
