14 
5mny_ligand_aiqm1.xyz
 C   -1.578181  -15.249105  -17.124135
 C   -0.890081  -15.552429  -15.945341
 C   -0.835077  -14.631121  -14.905674
 C   -1.466407  -13.395248  -15.017177
 C   -2.153062  -13.092238  -16.189770
 C   -2.212769  -14.008096  -17.234041
 N   -1.576238  -16.146614  -18.201608
 H   -0.388233  -16.509005  -15.849654
 H   -0.293931  -14.884932  -14.003334
 H   -1.422522  -12.681691  -14.207061
 H   -2.648488  -12.135953  -16.297234
 H   -2.744450  -13.757706  -18.145450
 H   -1.461160  -17.109081  -17.923869
 H   -2.372302  -16.044779  -18.812053
