17 
5mo0_ligand_ani-2x.xyz
 C   -1.895965  -14.902332  -17.132003
 C   -1.938498  -13.507710  -17.182081
 C   -1.561515  -12.754988  -16.076677
 C   -1.155621  -13.388463  -14.904476
 C   -1.131604  -14.779381  -14.840679
 C   -1.498295  -15.532060  -15.951471
 C   -2.298934  -15.689773  -18.339105
 N   -1.712038  -16.948561  -18.434451
 N   -3.141593  -15.183456  -19.153512
 H   -2.273099  -13.032151  -18.099321
 H   -1.589829  -11.669770  -16.128494
 H   -0.863576  -12.798009  -14.040141
 H   -0.818144  -15.279754  -13.927497
 H   -1.496604  -16.618123  -15.898276
 H   -1.809056  -17.398587  -19.334758
 H   -0.775632  -17.024140  -18.059439
 H   -3.340697  -15.822043  -19.925517
