17 
5mo0_ligand_aiqm1.xyz
 C   -1.889295  -14.892883  -17.139363
 C   -1.964408  -13.498156  -17.174841
 C   -1.594050  -12.751234  -16.064860
 C   -1.154253  -13.389464  -14.906495
 C   -1.094163  -14.779972  -14.860970
 C   -1.457454  -15.530611  -15.974960
 C   -2.283411  -15.676238  -18.345484
 N   -1.771991  -16.967605  -18.394449
 N   -3.066548  -15.150324  -19.208828
 H   -2.324869  -13.022476  -18.075498
 H   -1.654504  -11.671148  -16.096309
 H   -0.869168  -12.806839  -14.040195
 H   -0.771039  -15.280051  -13.957141
 H   -1.440291  -16.611929  -15.928742
 H   -1.865814  -17.418364  -19.288391
 H   -0.860942  -17.095186  -17.985868
 H   -3.238499  -15.786820  -19.985506
