13 
5mon_ligand_aiqm1.xyz
 N   -2.379973  -14.166585  -17.809607
 C   -1.867179  -15.350976  -17.462999
 C   -1.321518  -15.601343  -16.190581
 C   -1.317729  -14.576847  -15.264367
 C   -1.849648  -13.333498  -15.611323
 C   -2.362534  -13.191243  -16.889973
 N   -1.900270  -16.323971  -18.423464
 H   -0.916262  -16.576287  -15.949803
 H   -0.903662  -14.745080  -14.278724
 H   -1.864272  -12.508719  -14.915442
 H   -2.787474  -12.247159  -17.209847
 H   -2.298713  -16.097238  -19.314120
 H   -1.536866  -17.240451  -18.259149
