13 
5mon_ligand_dft.xyz
 N    0.292601   -1.191226    0.000236
 C    0.898509    0.002457    0.000238
 C    0.185522    1.217876    0.000420
 C   -1.195178    1.166504   -0.000070
 C   -1.840790   -0.071662   -0.000372
 C   -1.042304   -1.206205   -0.000060
 N    2.264302   -0.019110    0.000101
 H    0.714478    2.166182    0.001378
 H   -1.769624    2.088725    0.000145
 H   -2.921639   -0.151478   -0.001004
 H   -1.495542   -2.196040    0.000407
 H    2.728268   -0.911644    0.000160
 H    2.811188    0.822786   -0.004375
