14 
5moo_ligand_ani-2x.xyz
 C   -1.632976  -15.288475  -17.085916
 C   -1.016335  -15.587311  -15.860309
 C   -1.006538  -14.652040  -14.834489
 C   -1.603736  -13.405505  -14.997498
 C   -2.215683  -13.106297  -16.211246
 C   -2.234574  -14.029956  -17.247342
 N   -1.647472  -16.210027  -18.107937
 H   -0.545866  -16.558752  -15.721936
 H   -0.523424  -14.903571  -13.893054
 H   -1.592570  -12.678153  -14.190739
 H   -2.687440  -12.137174  -16.356911
 H   -2.715475  -13.785123  -18.192314
 H   -1.216854  -17.110690  -17.997828
 H   -2.085557  -16.000024  -18.986983
