14 
5moo_ligand_xtb.xyz
 C   -1.633750  -15.285343  -17.081756
 C   -1.020083  -15.583083  -15.863362
 C   -1.008024  -14.654990  -14.841699
 C   -1.603546  -13.415539  -15.008939
 C   -2.214152  -13.113106  -16.215003
 C   -2.231871  -14.033952  -17.243104
 N   -1.649799  -16.202158  -18.097070
 H   -0.554216  -16.549464  -15.729151
 H   -0.528684  -14.901583  -13.905132
 H   -1.591966  -12.692614  -14.207458
 H   -2.681712  -12.149214  -16.356535
 H   -2.709369  -13.794340  -18.183061
 H   -1.213061  -17.095740  -17.980142
 H   -2.084268  -15.981975  -18.972088
