17 
5moq_ligand_aiqm1.xyz
 C   -1.775788  -14.887630  -17.183056
 C   -1.876206  -13.494793  -17.178963
 C   -1.603893  -12.778194  -16.017977
 C   -1.236031  -13.448695  -14.853794
 C   -1.125867  -14.837780  -14.858456
 C   -1.389595  -15.554619  -16.018061
 C   -2.063385  -15.676513  -18.415323
 N   -1.561677  -16.845761  -18.544403
 N   -2.846334  -15.021129  -19.358116
 H   -2.131628  -12.971491  -18.091421
 H   -1.671961  -11.698045  -16.023582
 H   -1.027289  -12.890005  -13.950759
 H   -0.826056  -15.358930  -13.958602
 H   -1.292382  -16.630328  -16.045698
 H   -1.850791  -17.274983  -19.422027
 H   -3.206674  -15.615689  -20.084720
 H   -3.539043  -14.389313  -18.991542
