39 
5mpn_ligand_ani-2x.xyz
 C  -15.778435  -14.891955   -2.267807
 C   -8.898908  -11.966470    2.487502
 C  -11.236728  -17.834489    1.499599
 C  -11.134058  -16.498923    1.122586
 C  -12.475959  -18.379381    1.813624
 C  -11.771004  -11.556266   -0.047026
 C  -12.793057  -12.286252   -0.633571
 C  -13.511612  -16.246847    1.336155
 C  -11.110685  -13.492469    1.199785
 C  -14.814709  -13.815237   -1.816092
 C   -9.825312  -11.321661    1.480012
 C  -10.918129  -12.151186    0.879290
 C  -12.272220  -15.690753    1.025191
 C  -13.614317  -17.575779    1.736763
 C  -12.979455  -13.629556   -0.300382
 C  -12.129457  -14.255978    0.634445
 C  -14.932042  -18.125024    2.070063
 N  -16.932530  -18.346504    2.410657
 N  -16.061880  -17.428649    2.034557
 N  -15.143147  -19.410383    2.456269
 N  -16.420096  -19.528791    2.667041
 O   -9.694372  -10.156090    1.161579
 O  -13.946838  -14.398862   -0.858631
 H  -16.466040  -14.490428   -3.019066
 H  -15.234939  -15.732300   -2.709840
 H  -16.367496  -15.263647   -1.423492
 H   -8.138770  -11.239584    2.777032
 H   -9.457971  -12.282984    3.375238
 H   -8.418009  -12.854340    2.062920
 H  -10.342287  -18.447960    1.561030
 H  -10.160506  -16.077409    0.880457
 H  -12.575837  -19.417781    2.118573
 H  -11.619894  -10.511235   -0.300839
 H  -13.442707  -11.795853   -1.351930
 H  -14.406019  -15.638144    1.262278
 H  -10.463900  -13.967723    1.934398
 H  -14.230503  -13.433254   -2.664373
 H  -15.352788  -12.971962   -1.362153
 H  -17.921384  -18.160891    2.497160
