39 
5mpn_ligand_xtb.xyz
 C  -15.752529  -15.022798   -2.169191
 C   -8.917465  -11.948331    2.510571
 C  -11.278852  -17.832342    1.392368
 C  -11.145128  -16.498895    1.045543
 C  -12.519155  -18.348308    1.715087
 C  -11.756855  -11.561038   -0.019146
 C  -12.765103  -12.289205   -0.614609
 C  -13.500751  -16.173632    1.344272
 C  -11.082572  -13.487642    1.230586
 C  -14.800320  -13.900292   -1.787607
 C   -9.838981  -11.295981    1.506772
 C  -10.897230  -12.142469    0.911904
 C  -12.255002  -15.656241    1.014669
 C  -13.634824  -17.513876    1.690678
 C  -12.950498  -13.631335   -0.290273
 C  -12.092450  -14.236235    0.652077
 C  -14.937349  -18.048213    2.025716
 N  -16.956678  -18.276652    2.378110
 N  -16.080192  -17.367031    2.004521
 N  -15.159526  -19.331025    2.405978
 N  -16.413212  -19.449136    2.618810
 O   -9.715060  -10.128865    1.201786
 O  -13.894805  -14.426888   -0.837291
 H  -16.478722  -14.663913   -2.892737
 H  -15.195421  -15.850146   -2.599892
 H  -16.272593  -15.381774   -1.285189
 H   -8.195679  -11.214892    2.860831
 H   -9.489549  -12.322357    3.356681
 H   -8.389549  -12.780157    2.049715
 H  -10.409290  -18.472851    1.406413
 H  -10.174517  -16.107386    0.776872
 H  -12.644126  -19.385298    1.984531
 H  -11.614037  -10.520210   -0.267783
 H  -13.405943  -11.807037   -1.335849
 H  -14.375009  -15.543219    1.344328
 H  -10.447314  -13.972190    1.955574
 H  -14.256079  -13.542603   -2.672363
 H  -15.358452  -13.059832   -1.352731
 H  -17.943185  -18.082706    2.469267
