31 
5mri_ligand_ani-2x.xyz
 C  -13.181503  -75.276582   34.488018
 C   -9.431242  -80.074951   29.256220
 C   -9.789039  -80.155671   30.743551
 C   -8.695517  -79.479899   31.575607
 C  -11.189326  -79.565525   30.971203
 C  -11.945864  -80.101811   32.186283
 C  -10.783954  -78.908689   35.349781
 C  -11.558411  -78.645306   34.237852
 C  -12.378188  -77.479907   33.836958
 N  -11.369205  -79.764003   33.477684
 N  -10.559612  -80.622672   34.078914
 N  -10.197010  -80.108691   35.217886
 N  -12.455965  -76.499132   34.766544
 O  -10.602166  -78.130067   36.440622
 O  -12.950859  -77.399093   32.750710
 H  -13.411243  -74.773895   35.430533
 H  -12.607562  -74.595931   33.847586
 H  -14.113913  -75.516148   33.971262
 H  -10.163921  -80.603546   28.635427
 H   -9.400108  -79.029362   28.922704
 H   -8.446713  -80.515150   29.062621
 H   -9.826389  -81.219970   31.030156
 H   -8.854022  -79.617417   32.649755
 H   -7.713163  -79.897788   31.323666
 H   -8.662204  -78.402724   31.364003
 H  -11.153468  -78.469970   31.014302
 H  -11.808927  -79.816102   30.099711
 H  -12.965394  -79.716966   32.166786
 H  -11.978083  -81.195077   32.161290
 H  -11.927067  -76.588945   35.623341
 H  -10.017960  -78.619011   37.039025
