34 
5mt4_ligand_xtb.xyz
 C   10.174457   10.723587    7.755219
 C    7.110005    8.843071   10.091233
 C    6.780842    9.573412    8.960867
 C    7.773488   10.185697    8.218436
 C    9.723683   10.800985    5.345405
 C    9.402089   10.325242    2.921998
 C    9.432182    9.314570    1.928452
 C    9.126185    9.664929    0.607838
 C    8.766192   10.949643    0.267674
 C    8.692935   11.923186    1.256622
 C    9.008495   11.618718    2.560931
 N   10.227503   10.147684    6.426884
 C    9.106324   10.073057    8.596985
 C    9.429034    9.336248    9.727345
 C    8.434735    8.727120   10.474170
 O    9.325661   11.945342    5.388044
 N    9.754797   10.007603    4.210823
 C    9.777039    7.921261    2.279020
 O   10.319652    7.593150    3.315157
 O    9.445371    6.961299    1.403946
 H    9.952997   11.785669    7.615592
 H   11.154749   10.619381    8.230252
 H    6.334762    8.366384   10.672752
 H    5.747737    9.667986    8.660265
 H    7.522318   10.761849    7.339774
 H    9.206459    8.932943   -0.186552
 H    8.544852   11.195038   -0.759401
 H    8.400259   12.929896    0.999836
 H    8.968560   12.373378    3.328363
 H   10.441344    9.164938    6.361615
 H   10.462901    9.242712   10.028925
 H    8.695937    8.159020   11.354972
 H   10.099386    9.051870    4.305658
 H    8.964771    7.302933    0.638201
