34 
5mt4_ligand_ani-2x.xyz
 C    9.872319   10.706902    7.674816
 C    7.324534    8.702065   10.520094
 C    6.875148    8.941437    9.224177
 C    7.699339    9.577832    8.302088
 C    9.605165   10.747366    5.227694
 C    9.509901   10.379642    2.767692
 C    9.334727    9.383350    1.781706
 C    9.190988    9.766397    0.444206
 C    9.182592   11.103450    0.075855
 C    9.309800   12.078914    1.061012
 C    9.471466   11.727829    2.394160
 N    9.902958   10.058683    6.377417
 C    8.982086    9.988636    8.666470
 C    9.423931    9.745994    9.966098
 C    8.603386    9.105576   10.890188
 O    9.250622   11.916751    5.244167
 N    9.742336    9.978561    4.086544
 C    9.355823    7.931859    2.140440
 O    9.955388    7.462097    3.084783
 O    8.666519    7.099032    1.336328
 H    9.516108   11.724381    7.487927
 H   10.891989   10.784427    8.075812
 H    6.678909    8.202682   11.238229
 H    5.876628    8.628422    8.928438
 H    7.346814    9.758313    7.289090
 H    9.126111    9.003017   -0.330570
 H    9.062628   11.384736   -0.966860
 H    9.289140   13.132276    0.793118
 H    9.572148   12.487698    3.157924
 H   10.208146    9.099259    6.330018
 H   10.424342   10.063688   10.255426
 H    8.963985    8.922729   11.899804
 H    9.992132    8.994854    4.168753
 H    8.099592    7.600945    0.734257
