60 
5mwy_ligand_xtb.xyz
 C   -0.798723   -0.383826    0.527489
 C    0.182780   -0.484905    1.621436
 C   -3.151523   -0.369071   -0.324370
 C    1.128919    0.351444   -0.894368
 C   -1.295247    0.749339   -1.615836
 C    3.443429    0.003309   -0.492980
 C    1.687163   -0.400168    1.423437
 C   -2.647911    0.040575   -1.677201
 C   -4.438496   -0.175176   -0.013714
 C   -1.349183    2.085844   -0.888843
 C    5.629649   -0.290944    0.147334
 C    3.284853    0.120054   -2.024999
 C   -5.077911   -0.582258    1.234452
 C    3.902439    1.345454    0.107909
 C    1.963377   -2.021501   -0.425923
 O   -2.438870    2.218282   -0.143538
 C   -2.519967    3.382966    0.664849
 O   -0.558806    0.690273    1.400555
 C   -0.299490   -0.179507   -0.897629
 C   -2.187233   -1.052473    0.624367
 C    2.058594   -0.535782   -0.053242
 O    4.488399   -0.915800   -0.162048
 C    1.799973    0.434206   -2.272783
 C   -2.728533   -0.932714    2.060184
 O   -0.492152    2.926597   -0.991466
 O    6.638399   -0.875267    0.414046
 O   -6.245389   -0.355126    1.471561
 C    5.420297    1.214226    0.093766
 C   -4.188435   -1.342123    2.189393
 C   -2.058754   -2.535295    0.232850
 H   -0.110163   -1.016113    2.522550
 H    1.121035    1.347268   -0.444289
 H   -0.927031    0.950173   -2.626293
 H    1.994174    0.564861    1.828067
 H    2.173420   -1.183512    2.006023
 H   -2.532805   -0.856587   -2.294914
 H   -3.387605    0.680539   -2.159477
 H   -5.094347    0.320792   -0.716438
 H    3.573009   -0.828706   -2.476681
 H    3.939807    0.889065   -2.431055
 H    3.560572    1.457932    1.135302
 H    3.533477    2.186860   -0.472920
 H    1.951304   -2.167608   -1.500911
 H    2.825651   -2.545705   -0.022589
 H    1.064755   -2.460946   -0.001568
 H   -1.798539    3.309480    1.480699
 H   -3.534994    3.413608    1.052711
 H   -2.301869    4.273545    0.072146
 H   -0.313782   -1.139985   -1.420065
 H    1.363334   -0.288660   -2.962567
 H    1.667950    1.426010   -2.701266
 H   -2.621007    0.107803    2.373857
 H   -2.135186   -1.555167    2.732583
 H    5.920210    1.702721    0.927038
 H    5.863805    1.583381   -0.832929
 H   -4.540935   -1.180565    3.209666
 H   -4.313403   -2.406642    1.971701
 H   -3.032359   -3.016227    0.267140
 H   -1.391651   -3.046909    0.923558
 H   -1.668275   -2.651640   -0.774065
