60 
5mwy_ligand_dft.xyz
 C    0.878158   -0.636901   -0.121594
 C    0.030140   -1.306988   -1.128853
 C    3.136037   -0.049491    0.796467
 C   -1.222808    0.559223    0.591086
 C    1.100331    1.417242    1.311797
 C   -3.459940   -0.062000    0.154274
 C   -1.488799   -1.243873   -1.133191
 C    2.480830    0.914895    1.756241
 C    4.441794    0.079432    0.516230
 C    1.123454    2.413167    0.164147
 C   -5.570350   -0.714310   -0.540229
 C   -3.507428    0.757855    1.463587
 C    5.205489   -0.858270   -0.324133
 C   -3.822286    0.822677   -1.058087
 C   -1.980850   -1.798076    1.239219
 O    2.229677    2.318745   -0.575812
 C    2.249408    3.099697   -1.769268
 O    0.719212   -0.088804   -1.430075
 C    0.209480    0.201493    0.966448
 C    2.280998   -1.185022    0.232623
 C   -2.039673   -0.679225    0.180399
 O   -4.466399   -1.091290    0.147942
 C   -2.057685    1.251089    1.687723
 C    2.962280   -1.785237   -1.013549
 O    0.225303    3.192542   -0.065118
 O   -6.543398   -1.409997   -0.624493
 O    6.384217   -0.681124   -0.571686
 C   -5.338541    0.667100   -1.128300
 C    4.448487   -2.074492   -0.814986
 C    2.109899   -2.278506    1.311631
 H    0.450831   -2.164051   -1.651840
 H   -1.185038    1.225165   -0.277174
 H    0.628899    1.949221    2.144621
 H   -1.764262   -0.628592   -1.995048
 H   -1.894183   -2.245557   -1.313777
 H    2.338521    0.401028    2.718072
 H    3.155972    1.753102    1.949116
 H    5.014696    0.908566    0.924146
 H   -3.841581    0.105587    2.274731
 H   -4.229048    1.578047    1.397085
 H   -3.373605    0.444091   -1.979122
 H   -3.488826    1.853977   -0.922557
 H   -2.143974   -1.428660    2.256287
 H   -2.744104   -2.551568    1.030435
 H   -1.004711   -2.293608    1.222426
 H    1.457521    2.762850   -2.442149
 H    3.228143    2.926989   -2.214993
 H    2.108746    4.158480   -1.541182
 H    0.171968   -0.401619    1.882338
 H   -1.707426    0.970666    2.688256
 H   -1.963222    2.336553    1.606901
 H    2.838247   -1.080463   -1.841422
 H    2.457266   -2.715043   -1.296408
 H   -5.762842    0.729999   -2.131339
 H   -5.864054    1.395095   -0.499600
 H    4.912181   -2.421128   -1.742378
 H    4.598753   -2.871429   -0.073700
 H    3.074436   -2.730403    1.559540
 H    1.444982   -3.067539    0.942861
 H    1.686254   -1.889216    2.241728
