28 
5mxk_ligand_dft.xyz
 C    3.897562   -0.122570   -0.150922
 C    0.416696    1.502943    0.016611
 C    1.420446    0.532361   -0.043411
 C    1.065457   -0.825232   -0.095955
 C   -0.281629   -1.165424   -0.087161
 C   -1.281379   -0.188263   -0.032591
 C   -0.925848    1.166669    0.020488
 N   -2.611383   -0.637309   -0.028610
 C   -3.773259    0.100599    0.028221
 C   -5.045358   -0.728122    0.013686
 O   -3.808198    1.314472    0.085449
 C    2.127268   -1.898392   -0.171451
 C    3.437503   -1.441494    0.469788
 C    2.844338    0.968248   -0.050683
 O    3.156035    2.143496    0.000252
 H    4.103883   -0.272618   -1.221235
 H    4.818053    0.256068    0.301246
 H    0.718513    2.544630    0.058696
 H   -0.560756   -2.217684   -0.119272
 H   -1.695648    1.923180    0.065784
 H   -2.721648   -1.639036   -0.073535
 H   -5.616679   -0.499186    0.917045
 H   -5.649114   -0.418727   -0.843436
 H   -4.881664   -1.808173   -0.038715
 H    2.311239   -2.145555   -1.227251
 H    1.763017   -2.816335    0.302969
 H    3.288419   -1.308544    1.548641
 H    4.208600   -2.208538    0.344005
