28 
5mxk_ligand_aiqm1.xyz
 C  127.654157   26.562077    5.003406
 C  130.236458   26.814267    2.169214
 C  129.656994   26.858235    3.441483
 C  130.446309   27.225912    4.544215
 C  131.788528   27.533864    4.338904
 C  132.358323   27.490725    3.061766
 C  131.571508   27.127047    1.961600
 N  133.720768   27.819375    2.959651
 C  134.521350   27.859728    1.842649
 C  135.945693   28.263202    2.156114
 O  134.132939   27.600922    0.723868
 C  129.847912   27.288319    5.926104
 C  128.707938   26.286922    6.069370
 C  128.224592   26.497251    3.602541
 O  127.534252   26.179303    2.652667
 H  127.256577   27.574865    5.140616
 H  126.809564   25.875036    5.052016
 H  129.607601   26.525367    1.336991
 H  132.406728   27.807885    5.190058
 H  132.000352   27.089417    0.973011
 H  134.170391   28.057270    3.827388
 H  136.396007   27.556796    2.854938
 H  136.511387   28.271845    1.230732
 H  135.968858   29.255141    2.609612
 H  129.457324   28.297396    6.099804
 H  130.624423   27.116487    6.673616
 H  129.096301   25.269888    5.951710
 H  128.266966   26.348757    7.066054
