44 
5n18_ligand_aiqm1.xyz
 C   59.114820    7.090735   33.417170
 C   58.722980    5.732914   33.602269
 C   60.420399    5.126352   31.943609
 C   59.383527    4.786442   32.867280
 C   59.398998    9.217793   33.487525
 C   59.163433   10.606960   33.905375
 C   57.940457   10.949391   34.498705
 C   57.674287   12.246176   34.905154
 C   60.124259   11.608234   33.746224
 C   59.868522   12.914478   34.154089
 C   62.578031    9.518277   32.088415
 C   63.385880   10.395169   31.359597
 C   63.144756    8.818199   33.160883
 C   64.486034    9.002672   33.483275
 C   65.303401    9.875200   32.761033
 C   66.751270   10.062626   33.125468
 O   58.335640   14.499257   35.142513
 C   58.642824   13.233497   34.728640
 C   60.309986    8.747969   32.558736
 N   61.241860    9.321918   31.698121
 C   64.724877   10.564454   31.695739
 N   58.655360    8.188209   34.000769
 N   60.119541    7.377528   32.519316
 C   60.778221    6.428537   31.779613
 C   57.628809    5.415055   34.577874
 H   60.920788    4.356089   31.373684
 H   59.114807    3.745789   32.985560
 H   57.202987   10.172664   34.643447
 H   56.730936   12.511102   35.363804
 H   61.093874   11.379154   33.327116
 H   60.629158   13.678006   34.032221
 H   62.961522   10.943271   30.525726
 H   62.533801    8.141191   33.743581
 H   64.900953    8.453664   34.321283
 H   66.854754   10.427694   34.149708
 H   67.298104    9.119094   33.062216
 H   67.231505   10.779747   32.458086
 H   59.090522   15.068400   34.978903
 H   60.875287   10.055900   31.112799
 H   65.327156   11.252335   31.113177
 H   61.534123    6.802502   31.108832
 H   57.865213    5.821281   35.560456
 H   56.690337    5.871942   34.263558
 H   57.487601    4.337135   34.659149
