23 
5n1p_ligand_ani-2x.xyz
 C  -34.927019   13.684987   51.353617
 C  -35.615980   13.112266   50.159037
 C  -36.938879   13.520378   49.785729
 C  -37.533577   12.915677   48.643785
 C  -36.804928   11.957613   47.889467
 C  -35.533862   11.605089   48.252845
 C  -34.943433   12.183270   49.395659
 C  -38.853499   13.282422   48.267991
 C  -39.555232   14.210363   48.986515
 C  -38.965967   14.820353   50.115939
 C  -37.693800   14.489338   50.505760
 O  -35.060047   14.819381   51.799898
 N  -34.024671   12.835916   51.953823
 O  -33.560842   13.255194   53.196754
 H  -37.276622   11.512849   47.015745
 H  -34.975014   10.872723   47.675540
 H  -33.931383   11.903689   49.673118
 H  -39.295764   12.808517   47.393740
 H  -40.565363   14.486047   48.693435
 H  -39.528461   15.561754   50.677810
 H  -37.234415   14.969524   51.362366
 H  -34.270663   11.854218   52.003068
 H  -33.882479   14.179330   53.230259
