31 
5n1x_ligand_aiqm1.xyz
 C  -11.941352   16.248491    1.608408
 C  -10.172026   17.314397    0.256330
 C  -10.093904   18.526317    0.914865
 C   -7.878793   17.676227   -2.385648
 C   -9.111219   20.820446    1.155749
 C   -9.425525   20.939110    2.510545
 C   -9.319941   22.181828    3.122834
 C   -8.904913   23.266337    2.357456
 C   -8.692370   21.975975    0.486548
 C  -13.231845   16.947936    1.194627
 N  -10.935193   16.246644    0.560923
 N   -9.355596   17.174508   -0.828603
 N   -9.299810   16.057884   -1.596731
 C   -8.397428   16.383928   -2.532979
 C   -8.517324   18.186799   -1.263448
 N   -8.436402   19.378631   -0.628112
 C   -9.198775   19.525694    0.437737
 N   -8.591623   23.175824    1.060935
 H  -12.141360   15.210315    1.867987
 H  -11.513822   16.723943    2.493575
 H  -10.730220   18.713822    1.763434
 H   -7.150059   18.180287   -2.990836
 H   -9.722789   20.069969    3.083663
 H   -9.547613   22.307553    4.172879
 H   -8.812281   24.250888    2.800335
 H   -8.426064   21.914178   -0.560354
 H  -13.033483   17.986592    0.930278
 H  -13.672878   16.457096    0.327963
 H  -13.953469   16.930082    2.011043
 H  -10.869138   15.472866   -0.084168
 H   -8.152187   15.657532   -3.292536
