61 
5n1z_ligand_dft.xyz
 C    1.819023   -1.622506    0.153981
 C    1.847695   -0.415511   -0.556332
 C    3.031950    0.298118   -0.650257
 N    0.620012   -2.380128    0.224269
 C    6.658523   -1.453496    0.486999
 C    6.646119    0.006783    0.069338
 C    2.111314    2.062039   -2.020189
 C    1.275674    2.955138   -1.147930
 C   -0.045195    3.102475   -1.247417
 C   -0.810000    4.216692   -0.575197
 C   -2.171729    3.467402    1.248896
 C   -3.634715    3.175508    1.555253
 C   -3.876879    1.774474    0.965109
 C   -1.519052    2.112483    1.509468
 C   -0.610786   -1.831562    0.351086
 C   -2.959024   -2.141419   -0.016469
 C   -3.726543   -3.224845   -0.469382
 C   -2.792855   -4.255955   -0.719059
 C   -4.428658    1.777674   -0.483121
 N   -6.283755   -3.290499   -0.771457
 C   -5.131619   -3.257280   -0.634540
 N   -1.545339   -3.902251   -0.463932
 N   -1.665008   -2.615105   -0.029567
 C   -0.913247   -0.576592    0.816168
 N   -3.271839   -0.888695    0.332750
 C   -2.260542   -0.113197    0.746796
 N   -2.537804    1.164460    1.081534
 O   -5.377017    0.774143   -0.707441
 O   -2.091902    3.851131   -0.109710
 O    3.201129    1.466191   -1.326491
 C    4.197985   -0.199529   -0.043354
 N    5.388213    0.527104   -0.144360
 O    7.647151    0.672116   -0.103900
 C    5.442184   -1.836889    1.333972
 C    4.164698   -1.398123    0.663988
 C    2.968706   -2.108417    0.759572
 H    0.942730   -0.050173   -1.024699
 H    0.626947   -3.344283   -0.087225
 H    7.598045   -1.638976    1.010537
 H    6.673453   -2.048414   -0.436123
 H    2.597865    2.670269   -2.789507
 H    1.507921    1.306658   -2.537443
 H    1.846188    3.597028   -0.475523
 H   -0.629878    2.469470   -1.916001
 H   -0.985501    5.003248   -1.319365
 H   -0.207349    4.660164    0.232296
 H   -1.744557    4.252717    1.887858
 H   -4.298547    3.933544    1.135946
 H   -3.772557    3.159204    2.641606
 H   -4.590519    1.209181    1.573641
 H   -0.594331    2.001300    0.939730
 H   -1.283302    1.991780    2.576701
 H   -3.003963   -5.252348   -1.082311
 H   -4.939565    2.727043   -0.668929
 H   -3.578266    1.727432   -1.181570
 H   -0.113211    0.045981    1.183219
 H   -4.941581   -0.061307   -0.468061
 H    5.347314    1.449303   -0.556397
 H    5.430749   -2.915503    1.517075
 H    5.516226   -1.349001    2.315758
 H    2.931299   -3.037948    1.320186
