61 
5n1z_ligand_xtb.xyz
 C    1.968367    0.122976   -1.677336
 C    1.902819    0.139895   -0.282831
 C    2.935006   -0.385553    0.473347
 N    0.939408    0.667673   -2.449518
 C    6.557225   -1.333044   -1.332346
 C    6.336843   -1.742733    0.110785
 C    2.036557    0.301318    2.609872
 C    0.861415   -0.537901    3.026210
 C   -0.368631   -0.079046    3.198557
 C   -1.487362   -0.861646    3.832428
 C   -3.122701   -1.562417    2.238264
 C   -4.519589   -1.193574    1.737701
 C   -4.265821   -0.086955    0.710552
 C   -2.272085   -1.429071    0.971220
 C   -0.365432    0.756365   -2.089004
 C   -2.446511    1.892835   -2.386101
 C   -2.888175    2.904668   -3.251241
 C   -1.764445    3.214794   -4.042629
 C   -4.305589    1.338044    1.311707
 N   -5.201639    3.943951   -3.445368
 C   -4.161888    3.468588   -3.341510
 N   -0.710370    2.492940   -3.725239
 N   -1.120794    1.689172   -2.728591
 C   -1.002470   -0.024628   -1.156901
 N   -3.040381    1.231341   -1.402719
 C   -2.344798    0.270732   -0.795967
 N   -2.945057   -0.416383    0.190786
 O   -4.879973    2.271072    0.447725
 O   -2.756199   -0.650878    3.247740
 O    2.993205   -0.401098    1.837780
 C    4.048107   -0.945161   -0.178123
 N    5.080236   -1.495748    0.572110
 O    7.193181   -2.215041    0.823708
 C    5.323236   -1.591510   -2.191380
 C    4.117097   -0.951927   -1.567793
 C    3.083397   -0.409190   -2.312069
 H    1.051019    0.590794    0.198123
 H    1.183056    1.160108   -3.299259
 H    7.427832   -1.864184   -1.716021
 H    6.788307   -0.263364   -1.327732
 H    2.585937    0.578458    3.519958
 H    1.718872    1.224387    2.114394
 H    1.108232   -1.563544    3.268138
 H   -0.619085    0.946233    2.959213
 H   -1.591750   -0.503611    4.865049
 H   -1.243584   -1.932420    3.861454
 H   -3.076077   -2.587400    2.637636
 H   -5.152372   -0.860457    2.555068
 H   -4.972476   -2.062765    1.262096
 H   -4.996660   -0.113913   -0.105417
 H   -1.253408   -1.128866    1.227977
 H   -2.238484   -2.380479    0.425193
 H   -1.704938    3.942822   -4.827519
 H   -4.921878    1.345941    2.212915
 H   -3.284359    1.631892    1.597694
 H   -0.467436   -0.839518   -0.707931
 H   -4.421601    2.206116   -0.408282
 H    4.906006   -1.628221    1.559835
 H    5.478631   -1.211126   -3.201601
 H    5.151688   -2.670640   -2.264580
 H    3.138443   -0.408901   -3.389727
