61 
5n1z_ligand_ani-2x.xyz
 C    1.976200    0.164494   -1.643201
 C    1.912249    0.185141   -0.242149
 C    2.962857   -0.327103    0.500230
 N    0.941605    0.712081   -2.427833
 C    6.604280   -1.348096   -1.351496
 C    6.424102   -1.615696    0.130095
 C    2.013038    0.310699    2.632080
 C    0.833524   -0.569370    2.959801
 C   -0.401917   -0.141047    3.218583
 C   -1.499516   -1.028491    3.760348
 C   -3.232238   -1.610927    2.180690
 C   -4.590382   -1.088124    1.726218
 C   -4.245532    0.081724    0.790635
 C   -2.386069   -1.501293    0.913981
 C   -0.379052    0.726044   -2.095827
 C   -2.473446    1.824330   -2.484007
 C   -2.919126    2.782975   -3.393627
 C   -1.790010    3.056766   -4.203198
 C   -4.181885    1.439635    1.524721
 N   -5.302636    3.767671   -3.478757
 C   -4.232725    3.322300   -3.434980
 N   -0.726878    2.360219   -3.856202
 N   -1.155081    1.606673   -2.807540
 C   -1.011443   -0.045829   -1.158542
 N   -3.071707    1.224305   -1.447119
 C   -2.361298    0.284857   -0.810850
 N   -2.962679   -0.348540    0.226279
 O   -4.536552    2.523931    0.707421
 O   -2.770037   -0.735920    3.203920
 O    3.008042   -0.365850    1.869451
 C    4.087116   -0.869758   -0.150333
 N    5.161183   -1.354520    0.609618
 O    7.321190   -1.989065    0.859920
 C    5.335669   -1.599959   -2.166658
 C    4.139459   -0.917097   -1.538631
 C    3.093358   -0.374290   -2.278073
 H    1.051235    0.630635    0.240518
 H    1.172705    1.207946   -3.283040
 H    7.442500   -1.959662   -1.693417
 H    6.913478   -0.298293   -1.451448
 H    2.535324    0.587080    3.555817
 H    1.704405    1.247104    2.147989
 H    1.066436   -1.629677    3.062420
 H   -0.672624    0.907379    3.073654
 H   -1.612257   -0.857410    4.840206
 H   -1.227679   -2.089419    3.617190
 H   -3.283736   -2.642550    2.557616
 H   -5.209073   -0.785202    2.573825
 H   -5.122673   -1.866763    1.168036
 H   -4.973299    0.189151   -0.024403
 H   -1.335933   -1.327065    1.152988
 H   -2.464431   -2.414423    0.308638
 H   -1.749208    3.756290   -5.027658
 H   -4.902018    1.429098    2.352216
 H   -3.179182    1.556846    1.967033
 H   -0.487585   -0.867798   -0.692347
 H   -4.037735    2.420063   -0.124471
 H    5.040009   -1.411873    1.613134
 H    5.469083   -1.257689   -3.199432
 H    5.148187   -2.682833   -2.213219
 H    3.130513   -0.383600   -3.366311
