53 
5n21_ligand_xtb.xyz
 C    4.143618    1.530874   -2.713663
 C    4.260955    2.308551   -1.567388
 C    3.565193    1.948252   -0.410217
 N    5.089041    3.424954   -1.543815
 C   -0.126802   -0.516593   -0.154964
 C   -1.286327   -1.050082    0.476470
 C   -0.936113   -3.079402   -0.473477
 C    0.033141   -4.626077   -1.747959
 C   -1.064226   -4.413555   -0.892249
 C   -2.068636   -5.319932   -0.553397
 C   -1.851161    1.113825    1.543083
 C   -3.094206    1.523052    2.331397
 C   -3.480819    0.233945    3.052711
 C   -3.166716   -0.854748    2.025470
 C    3.795265    2.771710    0.823214
 C    3.972495    4.238129    0.441328
 C    5.051702    4.415118   -0.607689
 O    5.803903    5.361224   -0.660137
 C    2.738251    0.841305   -0.426709
 C    2.584458    0.082636   -1.585967
 C    3.314546    0.427972   -2.722407
 N    1.770947   -1.044184   -1.639495
 C    0.642650   -1.337936   -0.943757
 N    0.205921   -2.619319   -1.100541
 N    0.790152   -3.555114   -1.871463
 N   -2.891873   -6.077456   -0.293550
 N   -1.667888   -2.315262    0.317655
 N   -2.060567   -0.290681    1.269737
 C   -4.346398   -1.181917    1.103941
 C   -5.457623   -1.892818    1.830714
 O   -6.468979   -2.180625    1.002627
 O   -5.475812   -2.176005    2.997332
 H    4.703053    1.794162   -3.598826
 H    5.732136    3.554843   -2.314184
 H    0.133603    0.517990   -0.037107
 H    0.283568   -5.527637   -2.271836
 H   -0.943502    1.256252    2.144865
 H   -1.746371    1.683359    0.615140
 H   -3.887155    1.829306    1.649062
 H   -2.893582    2.343937    3.016159
 H   -4.521902    0.211376    3.361287
 H   -2.857669    0.098141    3.936465
 H   -2.848279   -1.789731    2.496112
 H    4.702558    2.415367    1.322640
 H    2.966136    2.659173    1.523222
 H    4.226579    4.849124    1.307103
 H    3.042975    4.626606    0.013370
 H    2.242320    0.543445    0.483291
 H    3.226791   -0.173840   -3.614223
 H    2.027910   -1.773532   -2.296242
 H   -3.994661   -1.848482    0.313480
 H   -4.752114   -0.284519    0.634613
 H   -7.160688   -2.675483    1.469676
