59 
5n7v_ligand_dft.xyz
 C   36.039425   43.037974   38.328275
 C   36.931861   42.373398   39.184938
 C   36.839524   42.636166   40.559515
 C   37.257595   41.820127   37.085017
 C   35.113645   44.086047   40.064962
 C   39.216969   40.689196   42.722997
 C   38.335114   40.335347   43.927354
 C   37.448264   39.121807   43.633524
 C   36.624030   39.331259   42.360022
 C   37.524534   39.648702   41.163757
 C   38.409359   40.881820   41.431253
 N   37.648424   42.117805   41.531577
 N   35.909533   43.496271   40.975671
 N   37.715277   41.590456   38.346467
 N   36.267220   42.670501   37.016999
 N   35.113695   43.906841   38.741905
 N   34.179294   44.985588   40.515229
 C   33.913569   45.427797   41.825941
 C   33.550300   46.770456   42.022443
 C   33.489877   47.725513   40.857408
 C   33.227920   47.210885   43.302546
 C   33.945613   44.571128   42.925689
 C   33.656200   45.029492   44.202973
 C   33.284139   46.364399   44.420522
 N   32.968039   46.835468   45.688246
 C   33.071287   48.245583   46.018901
 C   33.525626   48.405037   47.465310
 O   32.654838   47.791374   48.394289
 C   32.009153   46.630711   47.904635
 C   32.787915   45.927177   46.800644
 H   37.702004   41.323079   36.232121
 H   39.928616   39.871563   42.553562
 H   38.971918   40.143203   44.797746
 H   36.789663   38.920294   44.485536
 H   38.084491   38.234116   43.507990
 H   35.917367   40.158848   42.508554
 H   36.022255   38.441930   42.144585
 H   36.916644   39.808070   40.266206
 H   38.181306   38.791250   40.959723
 H   39.133710   40.999875   40.613327
 H   37.345856   42.401963   42.453253
 H   38.459081   40.963930   38.602428
 H   33.677280   45.423627   39.757851
 H   32.665102   47.485612   40.172750
 H   33.336277   48.752389   41.199781
 H   34.416347   47.695425   40.272911
 H   32.908535   48.241694   43.423685
 H   34.227992   43.536673   42.778789
 H   33.733134   44.336301   45.033644
 H   33.819621   48.722714   45.375258
 H   32.117976   48.775349   45.865762
 H   34.540201   47.989478   47.565567
 H   33.569554   49.466308   47.727567
 H   31.012943   46.893778   47.518552
 H   31.875646   45.955002   48.755209
 H   32.203788   45.059334   46.472547
 H   33.744837   45.546766   47.197921
 H   39.804058   41.592676   42.921080
 H   37.700560   41.189429   44.203087
