49 
5n84_ligand_dft.xyz
 O    5.516191   -1.467555    1.244190
 C    5.159080   -0.642800    0.419715
 N    6.033535   -0.040325   -0.446554
 C    7.412560   -0.422658   -0.475090
 C    8.418322    0.643821   -0.808011
 C    8.318113    0.108553    0.595070
 C    3.722529   -0.219292    0.294840
 C    3.327083    1.009224   -0.238485
 C    1.980637    1.337945   -0.326872
 C    0.998514    0.451637    0.128837
 C    1.402622   -0.767129    0.691421
 C    2.747320   -1.096351    0.771554
 C   -0.412941    0.838870    0.056870
 N   -1.441012    0.002870   -0.326815
 C   -1.477872   -1.304098   -0.794555
 C   -2.695745   -1.814148   -1.103145
 N   -3.883957   -1.147295   -0.993043
 C   -3.836411    0.103263   -0.586441
 C   -2.595152    0.740340   -0.237383
 N   -2.377016    1.978949    0.178040
 C   -1.033813    2.040671    0.354108
 N   -4.953660    0.856535   -0.488919
 C   -6.285014    0.322339   -0.689670
 C   -6.821224   -0.489303    0.499107
 C   -6.872039    0.352863    1.773948
 C   -8.196701   -1.060017    0.151696
 H    5.656022    0.390025   -1.277724
 H    7.606115   -1.433599   -0.828153
 H    8.041869    1.646228   -0.990377
 H    9.271569    0.362531   -1.416710
 H    9.099044   -0.548689    0.961860
 H    7.863307    0.743264    1.347706
 H    4.069161    1.730781   -0.568713
 H    1.680177    2.288121   -0.758123
 H    0.658727   -1.447286    1.096058
 H    3.067387   -2.030355    1.221376
 H   -0.539821   -1.829137   -0.898731
 H   -2.762021   -2.833941   -1.468656
 H   -0.549740    2.937754    0.717362
 H   -4.830030    1.777443   -0.094825
 H   -6.263273   -0.308553   -1.583719
 H   -6.950887    1.169664   -0.893058
 H   -6.125965   -1.323553    0.654309
 H   -5.882142    0.740464    2.037151
 H   -7.551650    1.206769    1.651373
 H   -7.233291   -0.240074    2.620909
 H   -8.920430   -0.255018   -0.030653
 H   -8.153899   -1.685161   -0.747116
 H   -8.584196   -1.674753    0.970876
