49 
5n84_ligand_aiqm1.xyz
 O   40.956379   38.288359   37.972472
 C   39.829227   38.377167   37.517762
 N   39.251573   37.410256   36.746111
 C   39.869096   36.140368   36.520969
 C   39.941306   35.638554   35.103594
 C   41.181533   36.121139   35.798350
 C   38.971558   39.578602   37.771950
 C   37.906340   39.951542   36.947696
 C   37.154094   41.082337   37.241083
 C   37.441457   41.859566   38.368582
 C   38.525067   41.493330   39.181095
 C   39.282823   40.370537   38.877991
 C   36.631974   43.048840   38.637726
 N   36.211514   43.460441   39.880374
 C   36.327646   42.903608   41.151753
 C   35.740785   43.568018   42.178560
 N   35.044756   44.748862   42.063331
 C   34.928701   45.253131   40.854192
 C   35.500895   44.612332   39.701645
 N   35.433136   44.972607   38.427991
 C   36.126416   44.004276   37.770217
 N   34.257245   46.398403   40.625521
 C   33.582134   47.152223   41.668309
 C   34.529441   47.923881   42.593494
 C   35.432546   48.872843   41.814534
 C   33.716737   48.684813   43.634998
 H   38.258026   37.474044   36.602222
 H   39.728868   35.399181   37.299601
 H   39.517764   36.276003   34.339454
 H   39.818854   34.578462   34.940931
 H   41.913173   35.397709   36.126269
 H   41.577126   37.087097   35.518149
 H   37.679007   39.385539   36.051612
 H   36.336733   41.374956   36.594853
 H   38.791087   42.106356   40.033289
 H   40.133648   40.093492   39.484603
 H   36.847126   41.966094   41.243239
 H   35.811769   43.160806   43.177988
 H   36.256994   44.037497   36.699655
 H   34.207074   46.693844   39.664645
 H   32.982374   46.458340   42.264443
 H   32.899033   47.847515   41.177696
 H   35.154544   47.188796   43.103321
 H   36.063195   48.333826   41.105903
 H   34.835790   49.600945   41.256576
 H   36.084788   49.426704   42.492401
 H   33.099038   49.449712   43.153713
 H   33.058884   48.017299   44.192860
 H   34.371727   49.187250   44.347776
