44 
5n93_ligand_ani-2x.xyz
 C    1.659448   36.573752   49.245903
 C    0.998711   34.253021   49.117630
 C    0.980642   34.319806   47.719040
 C    1.327333   35.520624   47.092595
 C   -0.057532   33.055180   45.822434
 C   -1.571776   32.828433   43.559003
 C   -1.263728   34.070885   44.161584
 C   -2.378368   32.774890   42.378646
 N   -3.040836   32.758987   41.422913
 C   -1.077315   31.643580   44.152242
 N   -1.313526   30.420795   43.576061
 C   -0.313242   31.773990   45.312595
 N   -1.801467   35.196838   43.608410
 C   -1.554092   36.587234   43.989108
 C   -1.885371   36.835542   45.466283
 C   -2.489501   37.433844   43.119511
 C   -0.098181   36.980308   43.704648
 N   -0.488413   34.180027   45.239118
 N    0.665983   33.162039   46.995013
 C    1.312486   35.373330   49.866116
 C    1.653350   36.634912   47.852004
 C    1.998351   37.743336   50.113840
 O    1.616882   37.826958   51.268232
 N    2.750311   38.729428   49.524480
 H    0.745146   33.320610   49.618453
 H    1.361488   35.576157   46.010576
 H   -2.062238   30.369064   42.900494
 H   -1.211045   29.609020   44.165130
 H    0.089486   30.893332   45.805524
 H   -2.336307   35.048683   42.761677
 H   -2.897371   36.481886   45.689515
 H   -1.181906   36.322723   46.124938
 H   -1.835052   37.909933   45.677225
 H   -2.263467   37.289161   42.056347
 H   -3.533929   37.151587   43.296025
 H   -2.380877   38.500227   43.343844
 H    0.589517   36.370724   44.295009
 H    0.137762   36.831195   42.645295
 H    0.067625   38.032996   43.959279
 H    0.798257   32.295828   47.495391
 H    1.296244   35.338507   50.951564
 H    1.877757   37.569608   47.345093
 H    3.082847   39.441754   50.158534
 H    3.350711   38.507565   48.744975
