33 
5nbw_ligand_aiqm1.xyz
 C   13.171499  -32.109747    4.447075
 C   13.057785  -33.287109    3.799265
 C   12.409688  -34.415374    4.433474
 C   11.890484  -34.280927    5.745672
 C   12.006917  -33.035197    6.440595
 C   12.654150  -31.931040    5.790190
 C   12.771951  -30.730904    6.446607
 C   12.268161  -30.551490    7.759528
 C   12.402802  -29.301615    8.416727
 C   11.918902  -29.119075    9.686079
 C   11.277469  -30.188455   10.350347
 C   11.134728  -31.408377    9.735578
 C   11.624714  -31.631559    8.419943
 C   11.497538  -32.889313    7.739218
 C   10.856660  -34.024338    8.349246
 C   10.742197  -35.211647    7.694843
 C   11.256178  -35.378291    6.370641
 C   11.149577  -36.591643    5.678490
 C   11.655630  -36.723958    4.399183
 C   12.283394  -35.638127    3.780316
 O   12.796076  -35.730936    2.516351
 H   13.655798  -31.262008    3.976640
 H   13.443242  -33.421403    2.797454
 H   13.260277  -29.897136    5.955623
 H   12.897641  -28.492008    7.892795
 H   12.025489  -28.162525   10.180748
 H   10.895843  -30.043126   11.352615
 H   10.638600  -32.204102   10.274466
 H   10.454191  -33.942244    9.348092
 H   10.255485  -36.054099    8.173177
 H   10.664328  -37.434746    6.153607
 H   11.567958  -37.668123    3.871517
 H   12.641546  -36.618057    2.187396
