33 
5nbw_ligand_xtb.xyz
 C   13.163038  -32.109861    4.467286
 C   13.049553  -33.287402    3.818743
 C   12.411514  -34.404304    4.437841
 C   11.892904  -34.269440    5.748981
 C   12.008502  -33.034537    6.437586
 C   12.652690  -31.934644    5.791033
 C   12.767685  -30.732359    6.455445
 C   12.267649  -30.557587    7.755810
 C   12.399526  -29.314753    8.413400
 C   11.918061  -29.131701    9.677647
 C   11.282129  -30.191852   10.336867
 C   11.139991  -31.407753    9.723959
 C   11.622641  -31.637526    8.420266
 C   11.494718  -32.892323    7.743752
 C   10.863962  -34.017966    8.337615
 C   10.749805  -35.202622    7.684408
 C   11.257918  -35.370609    6.372534
 C   11.153194  -36.580895    5.678048
 C   11.658299  -36.708271    4.404563
 C   12.285758  -35.634286    3.777377
 O   12.789013  -35.749388    2.517756
 H   13.646042  -31.264240    3.998554
 H   13.434483  -33.420596    2.819632
 H   13.254338  -29.898135    5.968884
 H   12.892966  -28.507960    7.889889
 H   12.022712  -28.178083   10.174135
 H   10.902143  -30.044308   11.337370
 H   10.645049  -32.200327   10.262632
 H   10.462212  -33.936302    9.334906
 H   10.265040  -36.044323    8.158911
 H   10.668860  -37.421721    6.152803
 H   11.571294  -37.650153    3.877037
 H   12.633211  -36.642471    2.187832
