31 
5ndf_ligand_aiqm1.xyz
 C   19.005010  -44.016067  -37.408122
 O   18.548658  -46.275317  -37.051528
 C   18.800876  -45.059363  -36.506176
 O   19.162665  -43.421803  -33.305266
 C   18.850828  -44.874449  -35.125563
 O   19.665355  -40.925991  -33.800518
 C   19.113749  -43.604002  -34.623786
 O   19.460343  -41.760595  -37.786708
 C   19.327150  -42.515854  -35.506709
 O   19.909371  -39.347588  -42.031865
 C   19.264464  -42.763512  -36.882393
 O   20.434155  -36.810702  -41.598245
 C   19.601333  -41.187602  -35.010524
 C   19.796147  -40.182290  -36.043969
 C   19.719810  -40.501069  -37.353806
 C   19.904889  -39.540935  -38.467185
 C   19.807662  -39.955358  -39.743337
 C   19.987649  -39.021167  -40.855332
 C   20.279804  -37.612208  -40.527612
 C   20.379088  -37.188403  -39.261134
 C   20.200666  -38.107445  -38.095568
 H   18.961648  -44.182583  -38.472576
 H   18.423772  -46.919509  -36.351504
 H   19.358212  -42.465383  -33.167537
 H   18.691173  -45.690180  -34.431655
 H   20.307786  -37.390263  -42.366771
 H   20.004436  -39.169185  -35.732429
 H   19.594581  -40.987289  -39.997771
 H   20.594652  -36.149443  -39.051595
 H   21.101099  -38.074045  -37.478618
 H   19.394367  -37.725799  -37.465597
