31 
5ndf_ligand_ani-2x.xyz
 C   19.017868  -43.989787  -37.424036
 O   18.565696  -46.261750  -37.088589
 C   18.814332  -45.048340  -36.539454
 O   19.168609  -43.436539  -33.324509
 C   18.864244  -44.866429  -35.157044
 O   19.668393  -40.921645  -33.786088
 C   19.123506  -43.597898  -34.642745
 O   19.468246  -41.724840  -37.780668
 C   19.333965  -42.505473  -35.514054
 O   19.897521  -39.383496  -42.030822
 C   19.273942  -42.738112  -36.889274
 O   20.402175  -36.889581  -41.618568
 C   19.607443  -41.166757  -35.001128
 C   19.798890  -40.163126  -36.017717
 C   19.726105  -40.462309  -37.339006
 C   19.904728  -39.520182  -38.444427
 C   19.802897  -39.965411  -39.725895
 C   19.971012  -39.074480  -40.843245
 C   20.261094  -37.645141  -40.521107
 C   20.362944  -37.198124  -39.269362
 C   20.194160  -38.096338  -38.082315
 H   18.976184  -44.145558  -38.494064
 H   18.443077  -46.910056  -36.383844
 H   19.362209  -42.478224  -33.156998
 H   18.706336  -45.688005  -34.465082
 H   20.266152  -37.532006  -42.347113
 H   20.003644  -39.157223  -35.681401
 H   19.592469  -41.002372  -39.951843
 H   20.575322  -36.149233  -39.087754
 H   21.098590  -38.024066  -37.454903
 H   19.399648  -37.682897  -37.438347
