31 
5ndf_ligand_xtb.xyz
 C   19.004649  -44.009918  -37.403358
 O   18.545043  -46.281581  -37.044741
 C   18.797800  -45.065382  -36.520551
 O   19.162339  -43.423976  -33.310019
 C   18.852389  -44.860766  -35.144860
 O   19.668762  -40.919059  -33.805673
 C   19.114126  -43.600290  -34.627126
 O   19.462075  -41.747981  -37.792628
 C   19.326588  -42.517168  -35.514556
 O   19.907787  -39.366006  -42.033972
 C   19.266690  -42.747664  -36.897219
 O   20.431679  -36.815711  -41.595073
 C   19.603256  -41.184358  -35.011178
 C   19.797079  -40.186299  -36.043900
 C   19.720894  -40.498650  -37.361892
 C   19.907335  -39.533544  -38.451451
 C   19.813267  -39.936143  -39.735094
 C   19.986828  -39.032465  -40.857796
 C   20.277160  -37.623042  -40.528094
 C   20.374097  -37.205639  -39.258361
 C   20.199772  -38.114634  -38.095647
 H   18.960519  -44.177609  -38.465273
 H   18.419359  -46.930272  -36.340299
 H   19.360002  -42.462949  -33.141970
 H   18.692429  -45.677236  -34.456437
 H   20.308263  -37.384977  -42.380965
 H   20.004702  -39.183899  -35.711787
 H   19.601086  -40.966232  -39.980772
 H   20.587342  -36.169073  -39.046118
 H   21.106141  -38.076064  -37.480317
 H   19.391943  -37.726810  -37.464273
