68 
5nf9_ligand_xtb.xyz
 O   -3.392064   -0.905729   -2.145074
 C   -3.146969   -2.093334   -2.211991
 C   -4.177304   -3.153015   -2.500995
 N   -1.897227   -2.572667   -1.998187
 C   -0.752306   -1.714828   -1.822038
 C   -0.522503   -1.366151   -0.343926
 N   -1.651862   -0.587814    0.128665
 C   -1.982361   -0.524143    1.436309
 C   -3.246640    0.176075    1.768426
 C   -3.345512    0.735917    3.042486
 C   -4.499894    1.392785    3.413369
 C   -5.571881    1.490649    2.540165
 C   -5.485304    0.923009    1.272553
 O   -6.476539    0.943707    0.341497
 C   -7.678478    1.607500    0.648625
 C   -4.314099    0.269308    0.887380
 O   -1.254952   -0.998621    2.301990
 O    0.343565   -2.408963   -2.345789
 C    1.517278   -1.618264   -2.375718
 C    2.588577   -2.469273   -3.067720
 O    2.238142   -2.772499   -4.387267
 C    1.962611   -1.180291   -0.973006
 C    0.803021   -0.603963   -0.127145
 O    1.185084   -0.679558    1.222720
 O    2.992931   -0.237186   -1.216239
 C    3.648208    0.279216   -0.099886
 C    4.960111    0.912674   -0.591058
 O    5.808663   -0.027982   -1.203929
 C    5.702238    1.516016    0.606137
 O    6.840467    2.227731    0.183937
 C    4.782060    2.496689    1.355175
 O    4.544163    3.637802    0.578859
 C    3.456492    1.791784    1.674520
 O    2.864805    1.262926    0.504067
 C    2.397223    2.710957    2.282340
 O    1.306638    1.966287    2.749398
 H   -3.896871   -3.720235   -3.385410
 H   -5.140453   -2.679025   -2.665458
 H   -4.252607   -3.834991   -1.656969
 H   -1.698785   -3.559001   -2.045678
 H   -0.932119   -0.779982   -2.384547
 H   -0.467075   -2.299321    0.237356
 H   -2.274621   -0.207047   -0.572511
 H   -2.506534    0.650321    3.714476
 H   -4.576568    1.835616    4.394906
 H   -6.464679    2.005550    2.858096
 H   -7.511019    2.669867    0.852637
 H   -8.185819    1.147867    1.503231
 H   -8.304028    1.506655   -0.236825
 H   -4.292369   -0.162299   -0.101247
 H    1.335680   -0.710202   -2.970382
 H    3.522945   -1.909674   -3.110724
 H    2.738038   -3.387131   -2.481486
 H    1.351589   -3.153043   -4.374485
 H    2.373052   -2.038766   -0.417300
 H    0.661494    0.447662   -0.424209
 H    0.384016   -0.840084    1.775324
 H    3.867123   -0.530428    0.627183
 H    4.692082    1.715197   -1.294383
 H    5.292719   -0.487391   -1.876088
 H    5.995061    0.695813    1.280332
 H    7.318492    1.659239   -0.432181
 H    5.272738    2.780021    2.300967
 H    5.396276    3.891178    0.196047
 H    3.667618    0.966099    2.375807
 H    2.088915    3.425394    1.508525
 H    2.811859    3.257832    3.132169
 H    1.187368    1.217858    2.143780
