74 
5nfa_ligand_aiqm1.xyz
 C    2.130894   -1.648705    1.594481
 C    2.613014   -1.005520    0.289320
 C    1.744495    0.199560   -0.059307
 C    0.273409   -0.207538   -0.026658
 O   -1.316996   -2.909082    2.522692
 O   -6.917195    1.599987    0.774949
 C   -6.952602    1.840513   -0.424264
 C   -8.209927    2.267362   -1.139076
 N   -5.849330    1.739804   -1.214394
 C   -4.520361    1.522487   -0.676037
 C   -4.155074    0.044118   -0.545524
 N   -5.111687   -0.645961    0.295828
 C   -5.373561   -1.962467    0.119154
 C   -6.479672   -2.540229    0.962750
 O   -4.716887   -2.653734   -0.658280
 O   -3.639164    2.135030   -1.589211
 C   -2.295746    2.155531   -1.093336
 C   -1.492994    2.940923   -2.113002
 O   -1.996372    4.251236   -2.277745
 C   -1.768679    0.731014   -0.888233
 C   -2.720859   -0.111300   -0.028197
 O   -2.301852   -1.465897   -0.059486
 O   -0.484720    0.931701   -0.298671
 O    2.096997    0.647172   -1.359802
 O    2.411651   -0.809494    2.696661
 C    0.626873   -1.899563    1.526500
 C    0.001365   -2.450703    2.782516
 O   -0.060923   -0.677021    1.254044
 O    3.965422   -0.662263    0.507397
 C    4.705695   -0.370934   -0.678352
 C    6.175685   -0.447056   -0.376867
 C    7.043495   -1.014287   -1.306253
 C    8.413899   -1.041737   -1.050181
 C    8.922072   -0.515609    0.126545
 C    8.050595    0.045637    1.064640
 C    6.679316    0.081457    0.817886
 O    8.636835    0.536927    2.192754
 C    7.777819    1.111886    3.160694
 H    2.654798   -2.606347    1.703624
 H    2.529090   -1.734442   -0.526145
 H    1.899392    0.983267    0.689255
 H    0.081773   -0.981462   -0.784972
 H   -1.725782   -2.290106    1.908137
 H   -9.070337    1.956410   -0.554673
 H   -8.217965    3.354602   -1.221937
 H   -8.264590    1.846882   -2.143012
 H   -5.899007    1.997591   -2.186223
 H   -4.465155    1.995479    0.311995
 H   -4.181593   -0.413880   -1.540460
 H   -5.720864   -0.086785    0.879314
 H   -7.005593   -3.292691    0.381202
 H   -6.028394   -3.036792    1.821174
 H   -7.178162   -1.782912    1.317460
 H   -2.272436    2.677356   -0.126784
 H   -0.468097    3.050012   -1.761241
 H   -1.483846    2.393673   -3.064284
 H   -2.911261    4.177355   -2.559450
 H   -1.650593    0.222228   -1.857309
 H   -2.656688    0.249883    1.006172
 H   -3.014641   -2.023165   -0.416725
 H    1.468809    1.332081   -1.600700
 H    3.322631   -0.523187    2.592491
 H    0.454720   -2.611038    0.705362
 H    0.576569   -3.309438    3.131592
 H    0.010686   -1.679070    3.559328
 H    4.435479    0.626510   -1.036551
 H    4.438519   -1.086248   -1.463252
 H    6.655718   -1.429100   -2.227743
 H    9.089781   -1.479744   -1.773739
 H    9.981757   -0.530041    0.342293
 H    5.995182    0.500575    1.540396
 H    7.070365    0.375082    3.547744
 H    7.224717    1.957612    2.745220
 H    8.420590    1.456602    3.965205
