85 
5nfb_ligand_aiqm1.xyz
 O   -5.641060   -1.375889   -1.944936
 C   -5.216872   -2.522974   -1.975669
 C   -6.124762   -3.723625   -2.035479
 N   -3.884669   -2.793437   -1.959324
 C   -2.882745   -1.753111   -2.078029
 C   -2.439825   -1.189447   -0.724043
 N   -3.583697   -0.624634   -0.033699
 C   -3.642639   -0.593033    1.316245
 C   -4.935765   -0.188033    1.943834
 C   -4.875207    0.335137    3.237129
 C   -6.042783    0.728864    3.867338
 C   -7.284214    0.593529    3.236951
 C   -7.339301    0.051483    1.951922
 O   -8.487209   -0.146805    1.246611
 C   -9.693535    0.274762    1.857143
 C   -6.162878   -0.335355    1.302468
 O   -2.656085   -0.858957    2.006938
 O   -1.793532   -2.356456   -2.737834
 C   -0.781861   -1.389516   -3.046627
 C    0.255817   -2.072511   -3.912689
 O    1.085836   -2.958802   -3.180298
 C   -0.202226   -0.827468   -1.749584
 C   -1.297129   -0.178838   -0.894138
 O   -0.742228    0.208729    0.348525
 O    0.810876    0.067861   -2.178094
 C    1.653266    0.570490   -1.185731
 C    3.057984    0.668509   -1.774729
 O    3.553723   -0.628879   -2.063256
 C    3.989144    1.321682   -0.758750
 C    3.391180    2.635880   -0.252138
 O    3.371709    3.614223   -1.272726
 C    1.965472    2.392260    0.234068
 C    1.211176    3.611990    0.695816
 O   -0.005723    3.232146    1.320414
 O    1.175123    1.838275   -0.816152
 O    5.249796    1.651003   -1.326103
 C    6.219182    0.602158   -1.254363
 C    6.613974    0.279376    0.166320
 C    6.482176   -1.016903    0.676396
 C    6.842468   -1.279157    1.992942
 C    7.332628   -0.271411    2.826214
 C    7.462490    1.020036    2.313740
 C    7.101979    1.288537    0.990440
 O    7.924015    2.089915    3.021487
 C    8.296380    1.855465    4.366971
 H   -7.047329   -3.491742   -1.512124
 H   -6.366825   -3.926103   -3.078978
 H   -5.660958   -4.610260   -1.604444
 H   -3.558715   -3.740231   -2.059467
 H   -3.305290   -0.939199   -2.680780
 H   -2.043236   -2.007889   -0.113309
 H   -4.400528   -0.405466   -0.585504
 H   -3.911247    0.420155    3.715712
 H   -6.001691    1.145548    4.865629
 H   -8.181570    0.907945    3.750858
 H   -9.881763   -0.272957    2.784073
 H   -9.678149    1.346736    2.066305
 H  -10.480571    0.056675    1.141708
 H   -6.250905   -0.751743    0.304748
 H   -1.225984   -0.568757   -3.626990
 H    0.919522   -1.312321   -4.323702
 H   -0.244715   -2.587974   -4.737814
 H    0.544499   -3.697783   -2.892494
 H    0.246360   -1.637751   -1.157746
 H   -1.669253    0.715669   -1.414695
 H   -1.254112   -0.183864    1.076762
 H    1.669957   -0.107567   -0.319428
 H    3.012263    1.285736   -2.679423
 H    2.854859   -1.122368   -2.505246
 H    4.105493    0.638079    0.085289
 H    4.008832    2.975823    0.589211
 H    4.226613    3.570098   -1.708994
 H    2.030213    1.677512    1.069161
 H    1.800089    4.149365    1.440642
 H    1.032982    4.271538   -0.160031
 H   -0.383322    2.515117    0.800937
 H    7.078632    0.986715   -1.805749
 H    5.847799   -0.295180   -1.754463
 H    6.099275   -1.810320    0.047140
 H    6.737511   -2.282268    2.386620
 H    7.601571   -0.501830    3.846687
 H    7.206384    2.299948    0.618954
 H    9.110421    1.129346    4.433116
 H    7.447979    1.501939    4.958183
 H    8.633260    2.812262    4.754923
