85 
5nfb_ligand_xtb.xyz
 O   -5.537732   -1.227143   -2.025943
 C   -5.266405   -2.407570   -2.115000
 C   -6.291546   -3.499553   -2.273065
 N   -3.986438   -2.848494   -2.045158
 C   -2.855585   -1.954344   -2.031556
 C   -2.446597   -1.571188   -0.600960
 N   -3.529995   -0.816187    0.000143
 C   -3.693259   -0.734298    1.337865
 C   -4.926289   -0.062467    1.815784
 C   -4.879001    0.524213    3.080639
 C   -5.996400    1.156496    3.583808
 C   -7.173832    1.203100    2.853898
 C   -7.232227    0.608352    1.597245
 O   -8.334806    0.578702    0.801012
 C   -9.507428    1.215463    1.246906
 C   -6.100028   -0.020584    1.077709
 O   -2.848402   -1.169679    2.112356
 O   -1.816624   -2.621078   -2.690167
 C   -0.686844   -1.790492   -2.882384
 C    0.318389   -2.600387   -3.712639
 O    0.791433   -3.724055   -3.026462
 C   -0.074137   -1.341941   -1.546967
 C   -1.128458   -0.767142   -0.574412
 O   -0.576408   -0.786896    0.717413
 O    0.912103   -0.395262   -1.920621
 C    1.676419    0.152395   -0.891181
 C    2.963914    0.694312   -1.537992
 O    3.701510   -0.371712   -2.085796
 C    3.810546    1.426976   -0.482858
 C    2.946448    2.430932    0.307710
 O    2.602501    3.527050   -0.494976
 C    1.673348    1.741734    0.810032
 C    0.684719    2.680918    1.499752
 O   -0.348960    1.950273    2.101712
 O    0.961035    1.172892   -0.268684
 O    4.843652    2.191947   -1.068801
 C    6.017092    1.462251   -1.388383
 C    6.734296    0.949261   -0.164201
 C    7.230821   -0.348379   -0.117951
 C    7.883964   -0.791399    1.015751
 C    8.042859    0.033887    2.117458
 C    7.539945    1.329689    2.082207
 C    6.891115    1.778024    0.932634
 O    7.628204    2.231428    3.100021
 C    8.275894    1.844591    4.286946
 H   -6.236231   -4.184167   -1.429711
 H   -7.282357   -3.056554   -2.311034
 H   -6.108940   -4.056663   -3.189024
 H   -3.766170   -3.827060   -2.135949
 H   -3.137051   -1.034254   -2.576733
 H   -2.287877   -2.489521   -0.015039
 H   -4.248672   -0.467928   -0.621638
 H   -3.958735    0.478396    3.640780
 H   -5.960767    1.620120    4.558086
 H   -8.034280    1.699783    3.273725
 H   -9.886781    0.762188    2.168699
 H   -9.348239    2.286685    1.406515
 H  -10.237818    1.076105    0.451511
 H   -6.191170   -0.474500    0.103146
 H   -0.974109   -0.889012   -3.443124
 H    1.183302   -1.975280   -3.935451
 H   -0.169573   -2.893103   -4.652573
 H    0.026385   -4.243265   -2.751260
 H    0.407492   -2.197697   -1.047893
 H   -1.337831    0.270499   -0.881540
 H   -1.292290   -0.958890    1.372129
 H    1.942143   -0.628501   -0.148209
 H    2.670870    1.408783   -2.321707
 H    3.076458   -0.952794   -2.538243
 H    4.232323    0.678923    0.203151
 H    3.534858    2.772389    1.176406
 H    3.387081    3.743821   -1.017325
 H    1.966709    0.942117    1.512378
 H    1.186319    3.252112    2.284225
 H    0.293196    3.371931    0.742626
 H   -0.518694    1.177541    1.540591
 H    6.648312    2.183478   -1.917764
 H    5.775968    0.633209   -2.061016
 H    7.100321   -1.003478   -0.965596
 H    8.273376   -1.798209    1.053099
 H    8.553055   -0.343540    2.989516
 H    6.503637    2.784766    0.914446
 H    9.324670    1.585942    4.107583
 H    7.769738    0.999726    4.765378
 H    8.227368    2.710967    4.944791
