26 
5ngt_ligand_xtb.xyz
 C  -14.108987  -16.045922   11.043105
 C  -14.552057  -17.379030   11.096023
 C  -17.382373  -17.264733    8.619387
 C  -16.224437  -16.869534    9.488689
 C  -15.770678  -15.552362    9.449715
 C  -14.701392  -15.094239   10.221492
 C  -14.239177  -13.723718   10.171427
 C  -14.685161  -12.638390    9.456208
 C  -13.848845  -11.558438    9.811158
 C  -12.957182  -12.057229   10.711572
 O  -13.184116  -13.358284   10.934143
 O  -13.055971  -15.927556   11.907748
 C  -12.926552  -17.174008   12.430121
 N  -11.988155  -17.358434   13.387330
 N  -13.760287  -18.061813   11.996504
 C  -15.616773  -17.802121   10.316121
 H  -18.259014  -16.664964    8.859489
 H  -17.142728  -17.099101    7.569998
 H  -17.630215  -18.313353    8.757743
 H  -16.266929  -14.854762    8.793570
 H  -15.503516  -12.611196    8.767093
 H  -13.904069  -10.552880    9.447166
 H  -12.145418  -11.602033   11.243930
 H  -11.250344  -16.676133   13.432431
 H  -11.753051  -18.314408   13.589528
 H  -15.952772  -18.824956   10.360709
