55 
5ngu_ligand_dft.xyz
 C    6.046969   -1.553577    1.206631
 C    5.216914   -0.279311    1.170087
 C    5.114755   -0.321882   -1.216202
 N   -5.404521   -3.722553   -0.046202
 C    0.875144    1.028041    0.041624
 C    1.089509    2.424188    0.057034
 C    2.417449    2.898532    0.064622
 C    3.492074    2.024222    0.052031
 C   -1.307968    3.190005    0.034017
 C   -3.326186    4.149719   -0.009503
 C   -3.934023    2.914696   -0.033496
 C   -3.100641    1.768729   -0.019355
 C   -3.579874    0.419404   -0.043030
 C   -4.917396   -0.010640   -0.085135
 C   -3.012865   -3.149852   -0.062314
 C   -4.112286   -4.011653    0.565150
 C   -5.896624   -2.416875   -0.124443
 O   -7.102063   -2.219273   -0.244489
 C   -4.852742   -1.405477   -0.084270
 C   -3.469319   -1.721608   -0.043563
 N   -2.695118   -0.648958   -0.020518
 N   -1.993487    4.336601    0.024369
 N   -1.763408    1.956007    0.017146
 N    0.080521    3.362869    0.065694
 C    1.962526    0.170560    0.031839
 C    3.270155    0.647370    0.036089
 N    4.355571   -0.303371    0.012105
 C    5.941566   -1.596881   -1.279615
 N    6.842885   -1.676077   -0.070666
 C    7.700134   -2.892556   -0.085919
 H    5.401820   -2.433752    1.254642
 H    6.761101   -1.566919    2.033828
 H    5.893681    0.599878    1.199374
 H    4.603039   -0.242495    2.072916
 H    5.782173    0.557055   -1.333576
 H    4.425139   -0.316892   -2.063351
 H   -6.146171   -4.386162    0.132446
 H   -0.138803    0.640764    0.035857
 H    2.600462    3.970356    0.077396
 H    4.504673    2.424717    0.053722
 H   -3.926263    5.058410   -0.018033
 H   -5.013228    2.824783   -0.061874
 H   -5.817132    0.591189   -0.106657
 H   -2.838967   -3.488137   -1.094577
 H   -2.074122   -3.273913    0.489631
 H   -3.899665   -5.076870    0.418488
 H   -4.133738   -3.822114    1.651751
 H    0.346228    4.336605    0.072058
 H    1.790724   -0.902145    0.020194
 H    6.583087   -1.638967   -2.163367
 H    5.296658   -2.477795   -1.242888
 H    7.455509   -0.854577   -0.110993
 H    7.052776   -3.769433   -0.043998
 H    8.285857   -2.906110   -1.006033
 H    8.360936   -2.875836    0.781792
