55 
5ngu_ligand_ani-2x.xyz
 C  -19.400063   19.233385   46.484096
 C  -19.631926   18.269796   45.329815
 C  -17.332132   18.498457   44.644079
 N   -9.998348   13.697387   41.279600
 C  -17.447094   14.370653   43.383380
 C  -18.610020   14.026627   42.689281
 C  -19.717385   14.878120   42.775507
 C  -19.668328   16.051523   43.510480
 C  -17.792361   12.096804   41.314587
 C  -17.321451   10.315951   40.009113
 C  -15.967967   10.629779   40.032904
 C  -15.615318   11.761578   40.764254
 C  -14.251993   12.260794   40.881524
 C  -13.056595   11.753744   40.346384
 C  -12.013787   14.780972   42.160172
 C  -10.587200   14.319491   42.457931
 C  -10.615632   12.681754   40.579253
 O   -9.997277   11.921970   39.851846
 C  -12.065270   12.643255   40.782279
 C  -12.745670   13.634361   41.547916
 N  -14.043388   13.408553   41.612639
 N  -18.251299   11.035186   40.634979
 N  -16.526234   12.480359   41.420161
 N  -18.753601   12.844943   41.948362
 C  -17.405749   15.547591   44.113504
 C  -18.503952   16.411381   44.200022
 N  -18.400357   17.566061   45.000248
 C  -17.059207   19.459883   45.788669
 N  -18.318898   20.214020   46.120585
 C  -18.110999   21.233378   47.155976
 H  -19.074587   18.687690   47.374004
 H  -20.313533   19.783116   46.724289
 H  -20.013969   18.854087   44.469118
 H  -20.398115   17.545616   45.618438
 H  -17.604479   19.089886   43.749472
 H  -16.422581   17.946604   44.401257
 H   -8.990008   13.666376   41.220695
 H  -16.580186   13.724071   43.351996
 H  -20.634325   14.615605   42.252022
 H  -20.543544   16.693153   43.539633
 H  -17.681101    9.449086   39.458346
 H  -15.238036   10.026496   39.506448
 H  -12.892479   10.876449   39.729466
 H  -11.985187   15.619494   41.453675
 H  -12.525587   15.116532   43.065930
 H   -9.960636   15.171531   42.736289
 H  -10.598042   13.625000   43.311289
 H  -19.693879   12.545901   41.738434
 H  -16.499820   15.804010   44.657629
 H  -16.276031   20.175631   45.525405
 H  -16.749255   18.913052   46.683637
 H  -18.623883   20.692468   45.251272
 H  -17.789326   20.753935   48.087569
 H  -17.336308   21.936835   46.841376
 H  -19.042299   21.772523   47.345765
