55 
5ngu_ligand_xtb.xyz
 C  -18.969413   19.001037   46.704337
 C  -19.586656   18.079647   45.646591
 C  -17.998014   18.807797   44.038411
 N   -9.906338   13.526046   41.606699
 C  -17.489290   14.667813   42.907745
 C  -18.713126   14.061844   42.580718
 C  -19.895144   14.679080   43.008971
 C  -19.866724   15.868074   43.712812
 C  -17.765074   12.162901   41.290089
 C  -17.209092   10.379442   40.044170
 C  -15.881972   10.705695   40.134436
 C  -15.538466   11.862671   40.878674
 C  -14.217303   12.331989   41.061279
 C  -13.022777   11.787576   40.555855
 C  -11.874331   14.710619   42.439439
 C  -10.489520   14.153019   42.771536
 C  -10.572983   12.581930   40.843619
 O   -9.933658   11.866689   40.081743
 C  -12.001607   12.610857   41.023717
 C  -12.655593   13.615566   41.789858
 N  -13.960046   13.464042   41.813544
 N  -18.189082   11.094565   40.613881
 N  -16.532086   12.570125   41.451733
 N  -18.790611   12.899963   41.868900
 C  -17.471402   15.839500   43.623596
 C  -18.651950   16.457582   44.026949
 N  -18.536396   17.682193   44.755789
 C  -17.339588   19.744714   45.050849
 N  -18.362179   20.182727   46.038061
 C  -17.820131   21.146278   47.005916
 H  -18.178907   18.464653   47.230895
 H  -19.720484   19.341471   47.419118
 H  -20.417423   18.613893   45.143410
 H  -19.994063   17.194245   46.135087
 H  -18.772660   19.364214   43.473894
 H  -17.252950   18.452380   43.327172
 H   -8.900821   13.429173   41.595984
 H  -16.574574   14.194762   42.581600
 H  -20.848204   14.224959   42.775383
 H  -20.799656   16.325860   44.013660
 H  -17.545113    9.507340   39.493161
 H  -15.123330   10.107025   39.659306
 H  -12.910476   10.913159   39.943499
 H  -11.772644   15.553027   41.745336
 H  -12.370978   15.069437   43.343323
 H   -9.818341   14.953769   43.102361
 H  -10.588155   13.427410   43.597504
 H  -19.706647   12.519175   41.676261
 H  -16.521472   16.285882   43.878230
 H  -16.914075   20.622565   44.562446
 H  -16.555969   19.207514   45.586589
 H  -19.112519   20.634513   45.499552
 H  -17.023281   20.675144   47.578970
 H  -17.414180   22.014065   46.488845
 H  -18.599228   21.475282   47.691493
