52 
5nhh_ligand_aiqm1.xyz
 C  -10.124207   15.546119   39.511653
 C  -10.409168   14.679982   40.728361
 C  -12.557184   15.770018   41.281237
 C  -14.910527   12.470698   40.409782
 C  -16.111752   12.942817   40.902763
 C  -17.483267   12.469758   40.834177
 C  -17.840827   11.303304   40.153172
 C  -19.185304   10.965644   40.174551
 C  -19.664403   12.802377   41.415248
 C  -20.344413   14.652104   42.936355
 C  -19.766773   14.159757   44.265483
 C  -19.603881   15.332116   45.220968
 C  -21.355127   16.531825   44.234471
 O  -11.852027   12.422590   40.156299
 C  -12.456366   13.382398   40.606405
 N  -11.818306   14.533557   41.045660
 O  -10.807294   15.023097   38.399592
 C  -10.595265   15.798862   37.245916
 C  -13.913971   13.395159   40.811200
 N  -15.860263   14.113804   41.591203
 C  -14.533844   14.396095   41.534666
 C  -13.800780   15.538547   42.138261
 N  -18.395927   13.228787   41.473759
 N  -20.113552   11.693747   40.797535
 N  -20.621338   13.568482   42.003801
 C  -21.618143   15.436354   43.208846
 O  -20.838767   15.996558   45.440951
 H   -9.041188   15.557357   39.330829
 H  -10.432126   16.588672   39.687756
 H  -10.023045   13.677733   40.559687
 H   -9.890517   15.123018   41.587094
 H  -11.884229   16.457730   41.794370
 H  -12.851330   16.230833   40.329956
 H  -14.746240   11.577672   39.832829
 H  -17.105730   10.701320   39.644080
 H  -19.540441   10.072793   39.673617
 H  -19.612148   15.312214   42.462216
 H  -20.459820   13.433783   44.702142
 H  -18.812427   13.658201   44.097884
 H  -19.260408   15.001235   46.198976
 H  -18.869417   16.045280   44.818887
 H  -20.648629   17.267308   43.824622
 H  -22.276127   17.047935   44.497407
 H  -11.153225   15.337233   36.435847
 H  -10.952573   16.826142   37.391472
 H   -9.532881   15.833714   36.978740
 H  -16.598789   14.637714   42.034601
 H  -13.516405   15.300457   43.169186
 H  -14.408874   16.444435   42.159496
 H  -21.525081   13.130007   42.047427
 H  -22.000155   15.871652   42.283009
 H  -22.375518   14.751003   43.603555
