48 
5nhj_ligand_xtb.xyz
 C  -20.341647   14.495294   43.410734
 C  -19.151109   14.944464   43.951881
 C  -19.509964   16.087718   44.675625
 N  -11.993047   14.085414   40.701268
 C  -17.680008   12.265415   41.105527
 C  -16.312678   12.706701   41.043346
 C  -15.183026   12.162270   40.461280
 C  -14.122953   13.048962   40.725488
 C  -14.638528   14.104155   41.462452
 C  -13.800002   15.232586   41.937971
 C  -12.646054   15.359477   40.938383
 C  -12.695179   12.945984   40.409816
 C  -10.577298   14.102408   40.420380
 C  -10.241178   14.715049   39.059493
 O  -12.154135   11.935827   39.994727
 O  -10.404089   16.116144   39.120991
 C  -10.114708   16.753952   37.905341
 N  -15.949200   13.885724   41.650613
 C  -18.149542   11.120538   40.449951
 C  -19.498028   10.846280   40.577691
 N  -20.321947   11.602678   41.285057
 N  -18.503234   13.029623   41.832811
 C  -19.774527   12.660311   41.892829
 N  -20.649494   13.416130   42.612402
 N  -20.803023   16.324339   44.592089
 N  -21.306357   15.357038   43.819130
 C  -22.710119   15.307912   43.530864
 H  -18.189168   14.490617   43.854170
 H  -18.879055   16.736237   45.249953
 H  -15.108596   11.245305   39.913694
 H  -13.411713   15.012943   42.938122
 H  -14.360141   16.167480   41.987315
 H  -11.890892   16.055928   41.304511
 H  -13.037095   15.759460   39.992843
 H  -10.242365   13.062892   40.426857
 H  -10.061233   14.666496   41.201730
 H  -10.899280   14.285806   38.289476
 H   -9.200587   14.471239   38.796051
 H  -10.268228   17.819080   38.066657
 H   -9.075941   16.576124   37.599985
 H  -10.778615   16.405273   37.104213
 H  -16.618858   14.464197   42.134817
 H  -17.492257   10.497184   39.870552
 H  -19.952399    9.989826   40.095964
 H  -21.609784   13.108245   42.564263
 H  -23.158174   16.198201   43.966814
 H  -22.885340   15.305884   42.452761
 H  -23.174204   14.423187   43.975112
