51 
5nhp_ligand_aiqm1.xyz
 C  -19.591628   14.048512   43.535462
 C  -18.628561   14.053959   44.527050
 C  -18.736088   15.338297   45.092203
 N  -11.184353   14.012043   40.417607
 C  -16.913591   12.263302   40.988416
 C  -15.572815   12.810349   40.827318
 C  -14.433454   12.146342   40.411875
 C  -13.373181   13.073542   40.461161
 C  -13.896692   14.279315   40.892343
 C  -16.126384   15.206716   41.503654
 C  -13.067251   15.510329   41.023823
 C  -11.637970   15.061948   41.320274
 C  -11.964287   12.936257   40.072878
 C   -9.785906   13.998277   40.035601
 O  -11.516273   11.978571   39.453275
 C   -9.533515   14.703960   38.717571
 O   -9.876642   16.068938   38.854621
 C   -9.706473   16.772487   37.646821
 N  -15.227558   14.125167   41.119742
 C  -17.253231   11.042917   40.380242
 C  -18.530623   10.563936   40.610115
 N  -19.428486   11.211453   41.365469
 N  -17.802049   12.933573   41.742350
 C  -19.005341   12.370396   41.878707
 N  -19.958930   13.072723   42.592051
 N  -19.689971   16.063924   44.510948
 N  -20.189680   15.266859   43.547661
 C  -21.287352   15.724824   42.727486
 H  -17.938855   13.257114   44.750660
 H  -18.166679   15.768335   45.901130
 H  -14.357983   11.112103   40.127884
 H  -16.876304   15.360984   40.727826
 H  -16.634282   14.970056   42.430964
 H  -15.544795   16.117471   41.618017
 H  -13.407578   16.158457   41.831487
 H  -13.098762   16.085572   40.093486
 H  -10.956429   15.902690   41.219658
 H  -11.580329   14.701149   42.357920
 H   -9.473074   12.959179   39.941034
 H   -9.197734   14.478521   40.823152
 H  -10.133016   14.238539   37.925943
 H   -8.474251   14.606889   38.447232
 H   -8.661641   16.743181   37.317335
 H  -10.334828   16.350406   36.855580
 H   -9.997280   17.805966   37.823703
 H  -16.553220   10.506314   39.761120
 H  -18.860538    9.626463   40.180068
 H  -20.765491   12.503783   42.804833
 H  -21.324575   15.109495   41.831397
 H  -22.230747   15.651855   43.267787
 H  -21.109125   16.761961   42.456463
