51 
5nhp_ligand_dft.xyz
 C   -4.598052   -1.165277   -0.006174
 C   -4.887213   -1.918091   -1.127167
 C   -4.267123   -3.153934   -0.875846
 N    4.098597    0.476598   -0.515866
 C   -1.777989    1.729216   -0.026873
 C   -0.393816    1.315378   -0.207806
 C    0.745807    2.052104    0.049634
 C    1.848399    1.227369   -0.238402
 C    1.355369    0.008931   -0.664687
 C   -0.857667   -1.056622   -1.062109
 C    2.257352   -1.129160   -1.008009
 C    3.601297   -0.538485   -1.442116
 C    3.282437    1.476861   -0.031916
 C    5.533992    0.617167   -0.360088
 O    3.713608    2.458650    0.560626
 C    6.087471   -0.285722    0.728520
 O    5.899670   -1.630442    0.350970
 C    6.297131   -2.531892    1.349784
 N   -0.001581    0.046581   -0.641441
 C   -2.138541    3.082448    0.058108
 C   -3.481207    3.354636    0.256808
 N   -4.425185    2.413237    0.348888
 N   -2.706618    0.772814    0.075321
 C   -3.970018    1.162437    0.241580
 N   -4.909923    0.155444    0.334632
 N   -3.639114   -3.166707    0.296640
 N   -3.869888   -1.954323    0.824472
 C   -3.282785   -1.585638    2.092738
 H   -5.452688   -1.605865   -1.992195
 H   -4.248761   -4.037928   -1.498703
 H    0.790852    3.060257    0.435687
 H   -1.286000   -1.581396   -0.206643
 H   -1.677818   -0.690561   -1.677108
 H   -0.255254   -1.754802   -1.644729
 H    1.870926   -1.751815   -1.821469
 H    2.399188   -1.780162   -0.135041
 H    4.347730   -1.331626   -1.488195
 H    3.492894   -0.105048   -2.448476
 H    5.739636    1.657496   -0.099016
 H    6.028466    0.390894   -1.312402
 H    5.564802   -0.073703    1.674468
 H    7.160146   -0.075560    0.878595
 H    7.366319   -2.423973    1.590662
 H    5.718355   -2.390585    2.275723
 H    6.119925   -3.540235    0.969017
 H   -1.410587    3.876998   -0.044301
 H   -3.829720    4.382266    0.334985
 H   -5.869991    0.460681    0.274411
 H   -3.965252   -0.917928    2.622453
 H   -3.131526   -2.499770    2.666192
 H   -2.330956   -1.069171    1.938934
