42 
5nhv_ligand_ani-2x.xyz
 C  -18.135274   10.517904   40.601169
 C  -18.586461   12.448927   41.674481
 C  -16.425134   12.094656   41.030668
 C  -14.626800   13.769242   41.586423
 C  -12.442253   15.039721   41.736915
 C  -11.015565   14.519708   41.923306
 C  -11.427617   12.768173   40.216027
 C  -19.146504   14.455066   42.997681
 C  -18.500436   14.157850   44.358915
 C  -18.266357   15.461395   45.113510
 C  -20.037051   16.557143   44.046169
 C  -20.382114   15.331338   43.207693
 O  -11.010670   11.906647   39.460725
 C  -12.845078   12.863961   40.609058
 C  -13.902619   12.025773   40.362338
 N  -10.622803   13.741750   40.755885
 N  -13.296776   13.924270   41.365367
 C  -15.045135   12.594966   40.988889
 C  -16.794220   10.865424   40.486587
 N  -17.320800   12.885466   41.631817
 N  -19.047261   11.285555   41.185339
 N  -19.510320   13.265227   42.251494
 O  -19.463458   16.193201   45.285698
 H  -18.496078    9.571345   40.201051
 H  -15.189268   14.504665   42.148713
 H  -12.465754   15.809835   40.957377
 H  -12.827265   15.470681   42.664549
 H  -10.950924   13.923877   42.845978
 H  -10.326281   15.362102   42.021499
 H  -18.415892   14.999965   42.384885
 H  -17.552950   13.626472   44.215403
 H  -19.166234   13.514145   44.949634
 H  -17.527885   16.075679   44.566929
 H  -17.872963   15.270901   46.116136
 H  -20.930909   17.142852   44.279214
 H  -19.339902   17.206339   43.487107
 H  -21.148103   14.743457   43.733513
 H  -20.793714   15.632705   42.237586
 H  -13.825139   11.115385   39.777263
 H   -9.637847   13.616229   40.566139
 H  -16.084165   10.205270   40.003501
 H  -20.401221   12.826533   42.426970
