42 
5nhv_ligand_aiqm1.xyz
 C  -18.117553   10.552235   40.582036
 C  -18.560509   12.488798   41.666850
 C  -16.402968   12.129208   41.018019
 C  -14.598899   13.815017   41.518535
 C  -12.400053   15.056456   41.626277
 C  -11.010013   14.512353   41.904693
 C  -11.388127   12.684978   40.275436
 C  -19.169491   14.495959   43.002506
 C  -18.498995   14.176250   44.340935
 C  -18.292119   15.459614   45.130191
 C  -20.118234   16.518954   44.119639
 C  -20.432403   15.302835   43.257939
 O  -10.947313   11.786033   39.583065
 C  -12.807151   12.824771   40.625663
 C  -13.877570   11.984847   40.407150
 N  -10.593064   13.700199   40.775456
 N  -13.259484   13.933633   41.313530
 C  -15.022018   12.607477   40.975693
 C  -16.781183   10.900558   40.463792
 N  -17.295913   12.929791   41.624209
 N  -19.027311   11.324520   41.181078
 N  -19.490848   13.304655   42.230650
 O  -19.518328   16.141524   45.347216
 H  -18.483051    9.613081   40.183315
 H  -15.169502   14.569593   42.033810
 H  -12.373373   15.750339   40.783197
 H  -12.799783   15.575185   42.495707
 H  -11.016901   13.933741   42.835262
 H  -10.309448   15.335981   42.019840
 H  -18.473635   15.092908   42.405152
 H  -17.548074   13.669368   44.169238
 H  -19.148061   13.502582   44.909579
 H  -17.594494   16.120098   44.594410
 H  -17.881362   15.256731   46.117725
 H  -21.026891   17.060096   44.376152
 H  -19.448921   17.200762   43.576281
 H  -21.154958   14.669128   43.783017
 H  -20.878301   15.617790   42.312012
 H  -13.817064   11.039888   39.897378
 H   -9.608567   13.524770   40.656642
 H  -16.071691   10.253232   39.972660
 H  -20.389576   12.875866   42.367663
