54 
5nkn_ligand_ani-2x.xyz
 O   -0.931919    4.191448   -1.165839
 C   -1.109636    3.033490   -1.515526
 C   -2.107678    2.630152   -2.583287
 N   -0.406984    2.000211   -0.978078
 C    0.600436    2.214048    0.051681
 C    1.555459    1.009782    0.112668
 C    2.873576    1.352223    0.007599
 C    0.019838    2.535596    1.447122
 C   -0.306798    1.309987    2.313863
 C   -1.093619    0.267711    1.565164
 C   -2.453916    0.101188    1.816659
 C   -3.225539   -0.766358    1.048370
 C   -2.621360   -1.504592    0.015693
 C   -1.255949   -1.372754   -0.211535
 O   -0.682958   -1.945450   -1.315940
 C   -0.752549   -3.360558   -1.435679
 O   -3.404539   -2.303893   -0.780291
 C   -3.789836   -1.650171   -1.980973
 O   -4.563457   -0.942941    1.183198
 C   -5.197717   -0.259383    2.239969
 C   -0.463317   -0.481636    0.557180
 C    0.995136   -0.298578    0.270400
 C    1.722594   -1.481520    0.212236
 C    3.087451   -1.712167    0.103477
 C    4.155579   -0.844402    0.040298
 C    4.128768    0.610680   -0.020487
 O    5.176865    1.251782   -0.128217
 O    5.354910   -1.455852   -0.075202
 C    6.467299   -0.973990    0.666802
 H   -1.589124    2.332504   -3.501907
 H   -2.746767    3.485801   -2.803183
 H   -2.725784    1.783351   -2.258887
 H   -0.568441    1.054711   -1.293638
 H    1.156377    3.101508   -0.262579
 H    3.099189    2.410265   -0.092944
 H    0.754276    3.151653    1.980423
 H   -0.872038    3.152717    1.290704
 H    0.633413    0.863361    2.658576
 H   -0.855952    1.632217    3.204152
 H   -2.913290    0.681926    2.610117
 H   -0.103319   -3.851738   -0.696915
 H   -0.387492   -3.590035   -2.438556
 H   -1.775128   -3.724851   -1.319368
 H   -4.399825   -0.766051   -1.755988
 H   -2.905308   -1.344836   -2.554559
 H   -4.382563   -2.361758   -2.560014
 H   -6.246947   -0.556626    2.209345
 H   -4.766633   -0.537889    3.210595
 H   -5.122818    0.828258    2.111484
 H    1.134029   -2.384615    0.301821
 H    3.385595   -2.758242    0.077901
 H    7.096639   -1.846802    0.857247
 H    7.014697   -0.223853    0.095651
 H    6.148436   -0.533943    1.617603
