54 
5nkn_ligand_xtb.xyz
 O   -1.474352    3.822704   -0.638579
 C   -1.340462    2.732119   -1.152308
 C   -2.308401    2.166520   -2.174961
 N   -0.329071    1.884871   -0.869267
 C    0.732793    2.141457    0.094491
 C    1.670448    0.949040    0.146842
 C    2.976380    1.197689   -0.143499
 C    0.193633    2.503701    1.493123
 C   -0.241472    1.295980    2.329502
 C   -1.048818    0.347593    1.498008
 C   -2.422952    0.247737    1.633677
 C   -3.147185   -0.616649    0.827739
 C   -2.491998   -1.385866   -0.155002
 C   -1.103922   -1.293870   -0.284647
 O   -0.334469   -1.934741   -1.210418
 C   -0.829126   -3.021189   -1.963204
 O   -3.217486   -2.260414   -0.947533
 C   -4.138856   -1.666648   -1.839804
 O   -4.498046   -0.781949    0.904435
 C   -5.210555   -0.062562    1.881553
 C   -0.384895   -0.422555    0.554251
 C    1.091999   -0.324461    0.432745
 C    1.789298   -1.481090    0.673570
 C    3.166691   -1.709183    0.762928
 C    4.236925   -0.913979    0.436907
 C    4.157364    0.370786   -0.277928
 O    5.100319    0.781492   -0.952925
 O    5.426106   -1.470873    0.742828
 C    6.644659   -0.766137    0.597931
 H   -1.782372    1.894870   -3.087215
 H   -3.065881    2.910433   -2.403142
 H   -2.786721    1.279575   -1.763617
 H   -0.281011    1.009251   -1.363776
 H    1.281590    3.024510   -0.260577
 H    3.215236    2.215824   -0.434215
 H    0.975053    3.044212    2.029590
 H   -0.645963    3.182686    1.347340
 H    0.644352    0.778315    2.706394
 H   -0.821422    1.645895    3.184105
 H   -2.916960    0.849630    2.378219
 H   -1.339934   -3.750251   -1.333175
 H    0.054379   -3.474956   -2.413612
 H   -1.506353   -2.692316   -2.755193
 H   -4.897606   -1.084398   -1.314054
 H   -3.626489   -1.023721   -2.566754
 H   -4.614799   -2.494054   -2.363100
 H   -6.249533   -0.368422    1.768279
 H   -4.868756   -0.310925    2.890722
 H   -5.131323    1.017616    1.722969
 H    1.179632   -2.344355    0.908004
 H    3.454444   -2.680815    1.147760
 H    7.396838   -1.413967    1.047466
 H    6.882177   -0.582712   -0.450391
 H    6.618239    0.189645    1.125922
