56 
5nlk_ligand_dft.xyz
 C    1.709201   -1.234302    4.142633
 C   -1.018281    6.340750    0.063193
 C    5.721788   -0.674058   -3.629278
 C   -7.957525   -1.823593   -1.120043
 C   -7.560624   -2.989090   -0.542781
 C   -6.808502   -0.979640   -1.108355
 C    5.762490   -1.514227    0.134336
 C    4.981513   -1.385050    1.272471
 C   -2.777681    1.898502   -0.072006
 C   -0.380560    1.874137    0.190558
 C   -1.619252   -0.218190    0.043938
 C    4.054491   -0.440278   -1.172448
 C    2.993064   -1.423085    3.361429
 C   -0.586669    4.887803   -0.020217
 C    6.207061   -1.191130   -2.288376
 C    0.833471   -0.341375    0.283152
 C   -4.374323   -1.447421   -0.241593
 C   -1.573963    2.587230    0.067030
 C   -2.808741    0.501388   -0.076557
 C    5.319767   -1.031996   -1.098830
 C   -0.421106    0.481726    0.161129
 C    3.260087   -0.306036   -0.044380
 C    3.736778   -0.754171    1.202134
 C   -5.808764   -1.703144   -0.522311
 N   -1.627494    3.993673    0.094213
 N   -4.068300   -0.104057   -0.220831
 N    1.981767    0.289970   -0.130079
 O    0.578370    4.561133   -0.147606
 O    7.296770   -1.723766   -2.187578
 O    0.817346   -1.483598    0.704241
 O   -3.579992   -2.348388   -0.063635
 O    2.953275   -0.514698    2.265712
 O   -6.265595   -2.930049   -0.181077
 H    1.628599   -0.205190    4.504991
 H    0.854182   -1.449594    3.496989
 H    1.689363   -1.909590    5.003811
 H   -1.161175    6.621639    1.112411
 H   -0.224897    6.960291   -0.355069
 H   -1.952310    6.534536   -0.473879
 H    6.494055   -0.860598   -4.376440
 H    4.796986   -1.179361   -3.929505
 H    5.512281    0.400366   -3.582649
 H   -8.937882   -1.596111   -1.511630
 H   -8.065835   -3.917311   -0.325844
 H   -6.735604    0.017809   -1.519721
 H    6.738120   -1.986058    0.183383
 H    5.349161   -1.747254    2.226289
 H   -3.706232    2.457522   -0.178733
 H    0.541810    2.416573    0.338368
 H   -1.616719   -1.298802    0.056840
 H    3.656085   -0.093836   -2.121740
 H    3.069803   -2.447136    2.977312
 H    3.873297   -1.216312    3.985495
 H   -2.552428    4.391183    0.162851
 H   -4.853455    0.528871   -0.251793
 H    1.897273    1.147689   -0.654268
