56 
5nlk_ligand_aiqm1.xyz
 C   13.690219   16.259288    8.631076
 C   14.879557    8.758024   13.504710
 C    6.035215   12.180592    8.966794
 C   17.941606    7.857417    3.237231
 C   17.040421    8.309603    2.322679
 C   17.447511    8.276543    4.509573
 C    8.114731   15.419443    9.129451
 C    9.435955   15.837118    9.237071
 C   15.129444    9.486082    8.805898
 C   13.489111   10.941801    9.815950
 C   13.876813   11.009478    7.412855
 C    8.830877   13.121884    9.186887
 C   12.214931   16.439224    8.896913
 C   14.192700    9.526953   12.397458
 C    6.364428   13.658039    9.005895
 C   12.183767   12.540306    8.360129
 C   15.296583    9.643516    5.109709
 C   14.461713    9.951632    9.940429
 C   14.837288   10.009804    7.544428
 C    7.793549   14.060176    9.115418
 C   13.208001   11.455077    8.549795
 C   10.156650   13.526197    9.286713
 C   10.465211   14.897757    9.341103
 C   16.286217    8.949717    4.258433
 N   14.823071    9.395897   11.183153
 N   15.568482    9.506426    6.451741
 N   11.202453   12.571036    9.309180
 O   13.185225   10.182011   12.567355
 O    5.484646   14.494912    8.948600
 O   12.221080   13.304508    7.411760
 O   14.358814   10.254565    4.649438
 O   11.758562   15.235974    9.523391
 O   16.033320    8.974209    2.928802
 H   14.228120   16.072079    9.560801
 H   13.837065   15.415403    7.960846
 H   14.094190   17.160078    8.167245
 H   15.921219    9.067572   13.599426
 H   14.353816    8.951769   14.433427
 H   14.858189    7.688400   13.290689
 H    4.956819   12.066362    8.883194
 H    6.523148   11.701923    8.116700
 H    6.388739   11.683952    9.871737
 H   18.839247    7.301585    3.029134
 H   16.980603    8.240799    1.250834
 H   17.916080    8.102007    5.464048
 H    7.311767   16.140093    9.059529
 H    9.673464   16.893755    9.250887
 H   15.887910    8.710780    8.903956
 H   12.997730   11.308769   10.701942
 H   13.643077   11.433031    6.449433
 H    8.620761   12.057035    9.154401
 H   11.668863   16.596036    7.964791
 H   12.020832   17.285461    9.566064
 H   15.627748    8.793380   11.170535
 H   16.339280    8.904101    6.672981
 H   11.163784   11.822525    9.976284
