29 
5nt0_ligand_xtb.xyz
 C   -6.268150  -36.823918    9.627945
 C   -6.297839  -37.145288    8.272867
 N   -5.924952  -36.219256    7.327757
 C   -6.780390  -38.400511    7.891936
 C   -7.210492  -39.300896    8.845827
 C   -7.184975  -38.977273   10.190995
 C   -6.714704  -37.725242   10.586994
 C   -6.652694  -37.323124   11.996269
 N   -5.818594  -36.407656   12.351205
 C   -5.762315  -36.043990   13.668643
 C   -4.852756  -35.051923   14.056241
 C   -4.769493  -34.668707   15.374541
 C   -5.583920  -35.258024   16.341386
 C   -6.484929  -36.234074   15.981138
 C   -6.583358  -36.635624   14.648531
 C   -7.539100  -37.661050   14.243389
 O   -8.321186  -38.247868   14.962142
 N   -7.495575  -37.936457   12.883010
 H   -5.898873  -35.864487    9.954233
 H   -5.358294  -35.450898    7.646006
 H   -5.703161  -36.565690    6.409325
 H   -6.808857  -38.662463    6.844194
 H   -7.567515  -40.272432    8.537612
 H   -7.495246  -39.714130   10.916715
 H   -4.228303  -34.606197   13.298132
 H   -4.065544  -33.903104   15.667193
 H   -5.505102  -34.946020   17.371934
 H   -7.129368  -36.707797   16.706393
 H   -8.160816  -38.623498   12.549146
