29 
5nt0_ligand_dft.xyz
 C   -2.391392   -0.850582   -0.237583
 C   -3.788243   -0.885785   -0.207551
 N   -4.474307   -2.028936   -0.602384
 C   -4.483182    0.271753    0.172066
 C   -3.790710    1.422272    0.520548
 C   -2.400416    1.457087    0.488366
 C   -1.700560    0.311036    0.100070
 C   -0.217655    0.282505    0.045232
 N    0.415580   -0.833101    0.196444
 C    1.800947   -0.799634    0.136081
 C    2.506654   -2.004485    0.292924
 C    3.887679   -2.011899    0.246578
 C    4.606428   -0.823622    0.043927
 C    3.928316    0.369768   -0.112737
 C    2.529361    0.387610   -0.066411
 C    1.803115    1.646204   -0.250378
 O    2.290076    2.742349   -0.460207
 N    0.420490    1.481369   -0.176724
 H   -1.821754   -1.728813   -0.525243
 H   -3.951105   -2.890183   -0.534097
 H   -5.408814   -2.123418   -0.231370
 H   -5.569934    0.263005    0.193084
 H   -4.343579    2.303675    0.830894
 H   -1.881323    2.354481    0.811217
 H    1.937241   -2.914277    0.451239
 H    4.423154   -2.948868    0.369279
 H    5.691060   -0.844367    0.010609
 H    4.450694    1.307168   -0.274050
 H   -0.120651    2.314123   -0.368055
