29 
5nt0_ligand_ani-2x.xyz
 C   -6.340716  -36.790457    9.568081
 C   -6.393031  -37.150662    8.218569
 N   -6.125525  -36.208734    7.224697
 C   -6.769829  -38.456221    7.882180
 C   -7.076342  -39.373739    8.879661
 C   -7.033064  -39.009221   10.218827
 C   -6.671109  -37.704861   10.563098
 C   -6.604068  -37.261655   11.984669
 N   -5.746917  -36.370832   12.354170
 C   -5.716343  -36.041657   13.702325
 C   -4.759421  -35.103225   14.147600
 C   -4.703220  -34.748311   15.477701
 C   -5.594424  -35.305777   16.412363
 C   -6.538187  -36.220489   15.990102
 C   -6.603425  -36.592247   14.643981
 C   -7.614210  -37.555967   14.194824
 O   -8.470826  -38.076680   14.883283
 N   -7.514272  -37.853594   12.839630
 H   -6.039076  -35.784461    9.852818
 H   -5.532746  -35.443293    7.514503
 H   -5.823511  -36.597583    6.343017
 H   -6.817979  -38.745255    6.835082
 H   -7.361754  -40.386463    8.605315
 H   -7.243528  -39.746362   10.988407
 H   -4.080900  -34.683082   13.410693
 H   -3.960452  -34.026442   15.809467
 H   -5.537251  -35.014004   17.457033
 H   -7.248744  -36.672302   16.677342
 H   -8.245630  -38.454022   12.472262
