29 
5nt0_ligand_aiqm1.xyz
 C   -6.307101  -36.788158    9.569357
 C   -6.356557  -37.153578    8.223251
 N   -6.040574  -36.223067    7.229594
 C   -6.786181  -38.440776    7.883656
 C   -7.155173  -39.339532    8.878135
 C   -7.114648  -38.974673   10.219299
 C   -6.690707  -37.688215   10.562580
 C   -6.618305  -37.260479   11.978799
 N   -5.769198  -36.359926   12.342268
 C   -5.740030  -36.026990   13.694307
 C   -4.816203  -35.061718   14.119601
 C   -4.748066  -34.704205   15.455713
 C   -5.597729  -35.297579   16.402126
 C   -6.513050  -36.248818   15.996722
 C   -6.587806  -36.617742   14.646096
 C   -7.565422  -37.616395   14.213404
 O   -8.372934  -38.186800   14.922771
 N   -7.496313  -37.873758   12.848864
 H   -5.970514  -35.796753    9.846976
 H   -5.425693  -35.485929    7.537219
 H   -5.717250  -36.634115    6.368486
 H   -6.832339  -38.734993    6.841778
 H   -7.473580  -40.336175    8.602858
 H   -7.370425  -39.697622   10.982042
 H   -4.166602  -34.612881   13.379947
 H   -4.029883  -33.958017   15.772069
 H   -5.535445  -35.010289   17.443298
 H   -7.185743  -36.726889   16.695497
 H   -8.183030  -38.521527   12.494986
