40 
5nt4_ligand_aiqm1.xyz
 C   -6.465421  -40.098322    6.188753
 C   -6.017264  -40.340769    4.755880
 O   -6.650251  -39.449276    3.857984
 C   -6.343598  -38.111638    4.203993
 C   -6.817122  -37.799214    5.612071
 N   -6.176609  -38.718438    6.553397
 C   -6.306260  -38.378438    7.913749
 C   -5.892364  -37.106155    8.345447
 C   -5.964218  -36.743410    9.678543
 C   -6.776606  -39.280128    8.882567
 C   -6.846302  -38.907583   10.221859
 C   -6.455946  -37.634638   10.636641
 C   -6.524988  -37.223920   12.052956
 N   -5.750642  -36.291786   12.497947
 C   -5.855336  -35.970562   13.847938
 C   -5.013614  -34.971871   14.358735
 C   -5.078154  -34.624232   15.697471
 C   -5.982314  -35.260576   16.562162
 C   -6.817773  -36.244829   16.072336
 C   -6.757887  -36.604097   14.718277
 C   -7.650169  -37.637691   14.195065
 O   -8.493364  -38.247960   14.825902
 N   -7.451128  -37.879135   12.840559
 H   -5.908410  -40.769141    6.843764
 H   -7.536435  -40.326430    6.284582
 H   -6.291140  -41.346939    4.440438
 H   -4.928208  -40.227523    4.685505
 H   -6.857179  -37.478130    3.482112
 H   -5.262440  -37.945126    4.124013
 H   -7.911077  -37.895667    5.660202
 H   -6.560554  -36.770815    5.865603
 H   -5.490647  -36.407973    7.623014
 H   -5.629500  -35.765888    9.997302
 H   -7.083175  -40.277546    8.604081
 H   -7.185373  -39.641166   10.944830
 H   -4.320287  -34.490798   13.681809
 H   -4.421946  -33.852418   16.080185
 H   -6.023593  -34.980708   17.606398
 H   -7.528534  -36.756787   16.706529
 H   -8.077472  -38.552178   12.427798
