37 
5nut_ligand_aiqm1.xyz
 C    8.522374   36.817035    5.485989
 C    7.264775   37.665891    5.570066
 C    7.039651   38.473018    4.309628
 O    7.370462   38.628101    6.628268
 C    7.221761   38.214765    7.908527
 C    6.886307   36.914612    8.303800
 C    6.738197   36.627327    9.655778
 C    7.402064   39.204723    8.883235
 C    7.262629   38.901378   10.224775
 C    6.933891   37.602134   10.631119
 C    6.769908   37.249851   12.054040
 N    6.037923   36.241578   12.393753
 C    5.910490   35.979497   13.754111
 C    5.108266   34.898812   14.148730
 C    4.946950   34.604994   15.492113
 C    5.580282   35.378095   16.477723
 C    6.373921   36.444189   16.103401
 C    6.541439   36.749654   14.745181
 C    7.390956   37.870918   14.346322
 O    8.014351   38.602846   15.092748
 N    7.437224   38.041863   12.967595
 H    9.379584   37.451559    5.256262
 H    8.722326   36.299219    6.422937
 H    8.418748   36.073092    4.695245
 H    6.393808   37.029590    5.754170
 H    6.129695   39.066876    4.387281
 H    7.884680   39.141989    4.142974
 H    6.949919   37.803938    3.453923
 H    6.736777   36.130294    7.577942
 H    6.466035   35.628513    9.966997
 H    7.641831   40.207385    8.557477
 H    7.375522   39.697090   10.951458
 H    4.624395   34.312286   13.379108
 H    4.323716   33.768741   15.783945
 H    5.446604   35.139205   17.524404
 H    6.879390   37.062249   16.832811
 H    8.048049   38.776494   12.646763
