28 
5nvc_ligand_aiqm1.xyz
 C    6.012833   37.192925    9.616204
 C    5.986845   37.662759    8.308217
 O    5.504659   36.812824    7.355517
 C    6.436626   38.946279    8.008828
 C    6.907776   39.763540    9.032555
 C    6.948879   39.304421   10.342545
 C    6.501066   38.011255   10.631405
 C    6.520643   37.489937   12.017710
 N    5.667075   36.597363   12.386178
 C    5.727872   36.172372   13.711329
 C    4.800728   35.213180   14.142500
 C    4.820841   34.766598   15.453242
 C    5.763854   35.262672   16.366705
 C    6.683597   36.206822   15.954570
 C    6.669581   36.665653   14.629686
 C    7.651232   37.656302   14.188034
 O    8.534469   38.146823   14.865942
 N    7.487545   38.010957   12.852910
 H    5.645773   36.199738    9.832230
 H    5.527109   37.253374    6.503760
 H    6.411395   39.308966    6.987781
 H    7.241172   40.765862    8.801947
 H    7.286565   39.962962   11.131229
 H    4.079385   34.840429   13.427833
 H    4.099484   34.026129   15.775312
 H    5.769737   34.906280   17.388174
 H    7.426536   36.611006   16.628317
 H    8.171424   38.656371   12.489742
