28 
5nvc_ligand_xtb.xyz
 C    5.984315   37.220088    9.680694
 C    5.932287   37.641679    8.358093
 O    5.398030   36.800834    7.438191
 C    6.425314   38.897361    8.015938
 C    6.954369   39.720114    8.994120
 C    7.013736   39.302914   10.310322
 C    6.531316   38.041436   10.659844
 C    6.563265   37.547247   12.042107
 N    5.723349   36.640454   12.400434
 C    5.751442   36.189645   13.691689
 C    4.834506   35.205791   14.081983
 C    4.835993   34.736347   15.374923
 C    5.744115   35.229545   16.311775
 C    6.653979   36.196086   15.947866
 C    6.667523   36.684381   14.640774
 C    7.630321   37.700766   14.230260
 O    8.487645   38.210184   14.921019
 N    7.495318   38.070379   12.897271
 H    5.599864   36.250970    9.950184
 H    5.414915   37.208945    6.563769
 H    6.387811   39.230159    6.987194
 H    7.322833   40.698351    8.724212
 H    7.404367   39.977309   11.057658
 H    4.138277   34.835658   13.346326
 H    4.126410   33.977455   15.670955
 H    5.730973   34.850452   17.322535
 H    7.369608   36.595925   16.650442
 H    8.162818   38.753322   12.559821
