28 
5nvc_ligand_ani-2x.xyz
 C    6.083452   37.175291    9.593151
 C    6.069445   37.650677    8.283589
 O    5.692244   36.776253    7.311049
 C    6.422286   38.971299    8.009211
 C    6.787333   39.813483    9.055395
 C    6.820753   39.344522   10.360471
 C    6.473393   38.017046   10.629296
 C    6.495010   37.479393   12.019449
 N    5.624162   36.610857   12.407236
 C    5.693498   36.191764   13.728980
 C    4.727973   35.274503   14.198930
 C    4.769474   34.831539   15.502832
 C    5.769924   35.276932   16.385743
 C    6.722860   36.170038   15.938383
 C    6.689928   36.630489   14.618897
 C    7.709289   37.572590   14.142834
 O    8.650680   38.001141   14.782428
 N    7.505717   37.968713   12.825286
 H    5.789884   36.148756    9.796911
 H    5.724910   37.221766    6.455675
 H    6.405132   39.340986    6.985445
 H    7.059114   40.844401    8.843783
 H    7.082005   40.017338   11.172444
 H    3.964118   34.941110   13.502229
 H    4.019222   34.126911   15.854286
 H    5.788795   34.916626   17.410205
 H    7.515626   36.536827   16.585146
 H    8.228474   38.562547   12.431114
