34 
5nve_ligand_aiqm1.xyz
 C    6.218379   38.460131    4.278430
 C    6.101249   37.763553    5.612867
 O    6.500694   38.701165    6.608439
 C    6.472564   38.291565    7.898444
 C    6.858314   39.246998    8.847922
 C    6.873094   38.925782   10.192631
 C    6.087776   37.014063    8.318600
 C    6.100059   36.710005    9.675719
 C    6.500120   37.647173   10.625339
 C    6.498784   37.279622   12.054029
 N    5.738088   36.326428   12.478500
 C    5.771911   36.046585   13.841058
 C    4.943256   35.025645   14.328882
 C    4.938909   34.717395   15.678735
 C    5.759467   35.416214   16.577892
 C    6.581155   36.422960   16.111072
 C    6.590583   36.742633   14.745847
 C    7.468847   37.800371   14.247848
 O    8.244106   38.464031   14.910996
 N    7.344818   37.996269   12.877051
 H    5.571528   39.335982    4.246990
 H    7.245408   38.777580    4.102378
 H    5.921802   37.777292    3.482692
 H    6.751310   36.884979    5.655217
 H    5.071855   37.445824    5.800810
 H    7.134145   40.233770    8.503060
 H    7.142742   39.694883   10.906365
 H    5.774737   36.263523    7.607980
 H    5.793396   35.729512   10.012597
 H    4.314527   34.496142   13.625481
 H    4.293522   33.927829   16.043313
 H    5.747386   35.166672   17.630529
 H    7.228525   36.982871   16.772062
 H    7.966341   38.685454   12.484023
