36 
5nvf_ligand_ani-2x.xyz
 C    5.808892   40.075003    6.127909
 C    5.787823   40.363712    4.771036
 C    6.048089   39.345105    3.862319
 C    6.298266   38.074003    4.367682
 N    6.303391   37.778515    5.665931
 C    6.092121   38.769006    6.542645
 C    6.157301   38.400107    7.982625
 C    5.927955   37.077630    8.375012
 C    5.965562   36.719824    9.711722
 C    6.444660   39.351649    8.966190
 C    6.505159   38.989717   10.301463
 C    6.269115   37.668234   10.689240
 C    6.322909   37.254554   12.116885
 N    5.553440   36.320795   12.563404
 C    5.639944   36.022324   13.916822
 C    4.780728   35.035056   14.447323
 C    4.842175   34.708376   15.784361
 C    5.758495   35.343662   16.641981
 C    6.607571   36.307364   16.135829
 C    6.552883   36.651084   14.781895
 C    7.463138   37.668487   14.244030
 O    8.329078   38.259719   14.860033
 N    7.247793   37.927152   12.894511
 H    5.587745   40.849941    6.856169
 H    5.576179   41.373778    4.429191
 H    6.050172   39.523275    2.791610
 H    6.494609   37.242261    3.692921
 H    5.716804   36.334870    7.613010
 H    5.764449   35.694467   10.010086
 H    6.654698   40.382614    8.692846
 H    6.698525   39.755081   11.048470
 H    4.080754   34.554817   13.769555
 H    4.173905   33.948111   16.182233
 H    5.794598   35.073188   17.693289
 H    7.333392   36.820109   16.761613
 H    7.907180   38.565311   12.460360
