42 
5nvh_ligand_ani-2x.xyz
 C    7.073345   39.704277    6.128131
 C    6.663218   40.453529    4.866700
 C    6.199277   39.472427    3.791666
 C    5.088774   38.585880    4.350527
 C    5.544947   37.892807    5.629575
 N    5.973749   38.873817    6.615837
 C    6.069250   38.454828    7.955775
 C    6.139862   39.428944    8.962790
 C    6.202375   39.064616   10.295445
 C    6.063745   37.105627    8.336659
 C    6.127238   36.748174    9.675080
 C    6.210732   37.718781   10.671726
 C    6.284203   37.303615   12.096794
 N    5.711409   36.218712   12.495290
 C    5.791468   35.920067   13.848806
 C    5.138792   34.761737   14.325136
 C    5.200705   34.430963   15.661151
 C    5.913737   35.231866   16.571534
 C    6.560343   36.364487   16.118890
 C    6.502315   36.713570   14.766471
 C    7.199020   37.911825   14.285556
 O    7.884524   38.663650   14.951674
 N    7.003743   38.143021   12.927848
 H    7.363120   40.409667    6.911378
 H    7.964878   39.081702    5.920304
 H    7.503605   41.061798    4.510488
 H    5.845992   41.143462    5.113340
 H    7.046373   38.844005    3.478047
 H    5.855218   40.008522    2.900259
 H    4.778752   37.830191    3.618677
 H    4.206416   39.197319    4.578450
 H    6.360447   37.182380    5.384904
 H    4.715973   37.313214    6.048351
 H    6.128119   40.479875    8.684076
 H    6.222315   39.845967   11.050889
 H    6.018469   36.326332    7.582478
 H    6.106065   35.698443    9.955967
 H    4.594053   34.155261   13.607213
 H    4.692204   33.537755   16.016816
 H    5.953397   34.955890   17.621281
 H    7.125907   37.009222   16.786562
 H    7.534226   38.915176   12.536861
