42 
5nvh_ligand_aiqm1.xyz
 C    7.052835   39.702750    6.135174
 C    6.687827   40.429121    4.849674
 C    6.248232   39.425875    3.789027
 C    5.111905   38.570529    4.337353
 C    5.512273   37.907664    5.649057
 N    5.922328   38.910313    6.622735
 C    6.030592   38.484687    7.958007
 C    6.198741   39.450017    8.965624
 C    6.285566   39.087179   10.299945
 C    5.921556   37.138941    8.350194
 C    5.993057   36.784386    9.691374
 C    6.193153   37.745195   10.682199
 C    6.275855   37.331388   12.096166
 N    5.733561   36.225469   12.483928
 C    5.833427   35.909397   13.835148
 C    5.239019   34.720737   14.283433
 C    5.307351   34.368967   15.620801
 C    5.969554   35.190183   16.546758
 C    6.560215   36.362654   16.119064
 C    6.494463   36.727197   14.766660
 C    7.129280   37.962642   14.309724
 O    7.752806   38.749056   14.998630
 N    6.958918   38.178034   12.947427
 H    7.348580   40.411423    6.908236
 H    7.916192   39.041949    5.952361
 H    7.550475   41.005702    4.508143
 H    5.875836   41.132377    5.051981
 H    7.094692   38.783483    3.524262
 H    5.937953   39.938386    2.876322
 H    4.825144   37.796478    3.621374
 H    4.233791   39.198442    4.512475
 H    6.325048   37.185774    5.466300
 H    4.660239   37.361056    6.052806
 H    6.239663   40.496806    8.693828
 H    6.378808   39.867928   11.046626
 H    5.773772   36.363947    7.612733
 H    5.901433   35.747008    9.983416
 H    4.730346   34.098047   13.559614
 H    4.843118   33.449231   15.954701
 H    6.016214   34.905125   17.589403
 H    7.080498   37.020772   16.801523
 H    7.417979   38.997083   12.581193
