39 
5nwb_ligand_xtb.xyz
 O    4.342754   38.964151    4.469316
 C    4.675286   37.840897    5.257880
 C    6.159001   37.943187    5.643920
 N    6.410036   38.898576    6.691951
 C    6.559380   40.276220    6.282958
 C    6.407852   38.550619    8.010459
 C    5.970430   37.289378    8.455456
 C    5.990195   36.958716    9.787431
 C    6.856431   39.450417    8.993468
 C    6.875606   39.110783   10.326233
 C    6.447064   37.854396   10.759883
 C    6.438499   37.437045   12.154979
 N    5.807559   36.357199   12.482187
 C    5.797695   35.967637   13.789951
 C    5.110652   34.797001   14.140119
 C    5.078033   34.380114   15.449759
 C    5.724079   35.110025   16.447889
 C    6.405054   36.261695   16.126034
 C    6.448879   36.700351   14.802402
 C    7.170916   37.913081   14.436500
 O    7.789216   38.643329   15.185167
 N    7.106256   38.197811   13.080918
 H    3.405824   38.936179    4.252134
 H    4.513504   36.914062    4.689080
 H    4.060028   37.809991    6.166706
 H    6.712324   38.254942    4.754062
 H    6.526429   36.960666    5.944349
 H    6.004035   40.937913    6.948617
 H    7.611168   40.581752    6.273427
 H    6.148689   40.386969    5.282502
 H    5.593902   36.563315    7.752933
 H    5.644915   35.991504   10.115442
 H    7.211973   40.426999    8.708835
 H    7.219058   39.856784   11.029328
 H    4.614872   34.242738   13.358745
 H    4.546128   33.476786   15.712127
 H    5.687857   34.768333   17.471478
 H    6.915684   36.847787   16.875496
 H    7.614537   39.021452   12.784476
