29 
5nwc_ligand_ani-2x.xyz
 N    7.437118   37.779494   12.746334
 C    7.604897   37.488183   14.098107
 O    8.512286   37.990854   14.732571
 C    6.590013   36.559963   14.611245
 C    6.570241   36.215783   15.966213
 C    5.613560   35.342894   16.444882
 C    4.664992   34.801235   15.560580
 C    4.677709   35.127899   14.220741
 C    5.647687   36.021351   13.719128
 N    5.643848   36.313903   12.362319
 C    6.487495   37.194982   11.929008
 C    6.497370   37.654991   10.515715
 C    6.766528   38.993966   10.218150
 C    6.785189   39.469404    8.915662
 C    6.544355   38.580351    7.871738
 C    6.269145   37.249235    8.139333
 C    6.222788   36.762131    9.455587
 N    5.981515   35.418936    9.666005
 H    8.160769   38.362999   12.338276
 H    7.323827   36.655150   16.614491
 H    5.590554   35.072967   17.496797
 H    3.911389   34.113431   15.936423
 H    3.951779   34.715979   13.525920
 H    6.934414   39.689129   11.037709
 H    6.998832   40.515683    8.716418
 H    6.564705   38.925462    6.841536
 H    6.082245   36.557168    7.319644
 H    5.607046   35.178463   10.574909
 H    5.545604   34.938015    8.893758
