29 
5nwc_ligand_xtb.xyz
 N    7.331769   37.960480   12.818625
 C    7.412406   37.715545   14.182644
 O    8.169236   38.365073   14.873893
 C    6.531525   36.642164   14.627787
 C    6.476708   36.262859   15.968889
 C    5.646965   35.236847   16.360314
 C    4.863182   34.575230   15.415322
 C    4.905546   34.935091   14.088575
 C    5.741815   35.978665   13.670397
 N    5.758615   36.318683   12.347065
 C    6.521155   37.287589   11.942611
 C    6.540927   37.681946   10.537786
 C    7.058135   38.924030   10.150282
 C    7.105090   39.314637    8.831226
 C    6.632327   38.456230    7.844473
 C    6.100337   37.238865    8.191836
 C    6.024385   36.825662    9.531441
 N    5.510659   35.613117    9.831187
 H    7.956554   38.678307   12.473347
 H    7.096956   36.793484   16.675427
 H    5.600451   34.941420   17.397523
 H    4.215073   33.770631   15.731190
 H    4.300335   34.429621   13.351779
 H    7.402816   39.624436   10.897583
 H    7.502498   40.282035    8.567014
 H    6.671996   38.751856    6.806716
 H    5.717521   36.574356    7.430211
 H    5.337494   35.428779   10.813145
 H    5.055424   35.082364    9.110913
