41 
5nwd_ligand_xtb.xyz
 C    6.300560   40.816653    5.826468
 C    7.447936   39.825245    6.030920
 N    6.995494   38.549668    6.540050
 C    6.659167   37.557930    5.542688
 C    7.850468   36.673562    5.169059
 C    6.896031   38.295205    7.877217
 C    6.637625   37.001667    8.368498
 C    6.539597   36.753980    9.714701
 C    7.041891   39.314190    8.835155
 C    6.954874   39.056682   10.183744
 C    6.705648   37.769145   10.662023
 C    6.598516   37.435810   12.075130
 N    6.118104   36.284419   12.413143
 C    6.016644   35.973876   13.738078
 C    5.493868   34.724633   14.100124
 C    5.373720   34.383693   15.426514
 C    5.767456   35.269311   16.430058
 C    6.284138   36.500417   16.096850
 C    6.413374   36.863961   14.756118
 C    6.966133   38.159456   14.379268
 O    7.363327   39.026050   15.132605
 N    7.018678   38.350997   13.006970
 H    5.578146   40.419653    5.117138
 H    5.785103   41.005957    6.764232
 H    6.684134   41.757302    5.440127
 H    8.194234   40.246434    6.708544
 H    7.945318   39.648174    5.073126
 H    6.307232   38.083992    4.650815
 H    5.831200   36.942970    5.902656
 H    8.661224   37.278012    4.768926
 H    8.221931   36.142400    6.041275
 H    7.555021   35.948334    4.415480
 H    6.522241   36.172244    7.690868
 H    6.341982   35.756584   10.073191
 H    7.211748   40.332900    8.527980
 H    7.054341   39.893521   10.861184
 H    5.192451   34.050071   13.314224
 H    4.969449   33.418997   15.697962
 H    5.665520   34.985452   17.466808
 H    6.598619   37.207110   16.850272
 H    7.417854   39.230741   12.704708
