41 
5nwd_ligand_ani-2x.xyz
 C    6.029821   40.797476    5.910975
 C    7.279736   39.927064    6.045567
 N    7.006103   38.575344    6.497565
 C    6.834897   37.558654    5.476245
 C    8.113044   36.782296    5.157846
 C    6.901555   38.272896    7.843189
 C    6.786508   36.942396    8.292169
 C    6.683815   36.643820    9.640589
 C    6.900806   39.282861    8.826939
 C    6.811813   38.971211   10.172643
 C    6.711892   37.648503   10.605881
 C    6.614226   37.291902   12.043949
 N    5.959339   36.245320   12.417755
 C    5.879967   36.001380   13.782211
 C    5.134960   34.887177   14.227303
 C    5.037923   34.611149   15.573629
 C    5.677789   35.424931   16.525985
 C    6.413215   36.514648   16.104701
 C    6.516651   36.808128   14.741808
 C    7.307617   37.960306   14.295413
 O    7.945172   38.715427   15.004101
 N    7.271086   38.140373   12.916576
 H    5.333979   40.370584    5.178467
 H    5.498660   40.883669    6.865201
 H    6.296622   41.805842    5.575202
 H    8.005864   40.396579    6.721295
 H    7.776585   39.852798    5.069171
 H    6.481951   38.062747    4.566796
 H    6.031470   36.873176    5.774727
 H    8.895702   37.454657    4.785937
 H    8.503800   36.274106    6.046163
 H    7.922865   36.026902    4.387158
 H    6.779253   36.123946    7.581256
 H    6.576073   35.609667    9.956849
 H    6.972298   40.326784    8.542239
 H    6.788859   39.785534   10.892740
 H    4.648824   34.270015   13.477148
 H    4.459539   33.751671   15.904747
 H    5.591974   35.192340   17.583459
 H    6.927054   37.167245   16.805713
 H    7.871694   38.875875   12.557592
