41 
5nwd_ligand_aiqm1.xyz
 C    6.142996   40.824548    5.886200
 C    7.350051   39.902270    6.053415
 N    7.006960   38.568261    6.512036
 C    6.771434   37.561622    5.492282
 C    8.015008   36.749915    5.131964
 C    6.905635   38.272611    7.848294
 C    6.728293   36.945224    8.301717
 C    6.622461   36.658113    9.651378
 C    6.969000   39.284014    8.833108
 C    6.881498   38.976389   10.182371
 C    6.711925   37.661136   10.618775
 C    6.604130   37.316654   12.045483
 N    6.016545   36.224902   12.411413
 C    5.935585   35.974203   13.776534
 C    5.290281   34.801939   14.198071
 C    5.179282   34.513945   15.547551
 C    5.708111   35.384109   16.513949
 C    6.346863   36.540726   16.113631
 C    6.462323   36.840890   14.748681
 C    7.149120   38.058882   14.322266
 O    7.671766   38.883056   15.050652
 N    7.163846   38.208030   12.941556
 H    5.440343   40.405761    5.163610
 H    5.612381   40.957137    6.829180
 H    6.457507   41.806987    5.529419
 H    8.076469   40.338018    6.742871
 H    7.858881   39.795610    5.093015
 H    6.407063   38.078986    4.602207
 H    5.963929   36.904726    5.822165
 H    8.805033   37.406070    4.762116
 H    8.403169   36.215465    5.999096
 H    7.783799   36.019106    4.354895
 H    6.670133   36.137363    7.589313
 H    6.474327   35.635787    9.972376
 H    7.076135   40.316925    8.540916
 H    6.903465   39.795329   10.893531
 H    4.885885   34.140806   13.443204
 H    4.677593   33.606174   15.859787
 H    5.615102   35.148569   17.565864
 H    6.768678   37.235191   16.827451
 H    7.667995   39.011952   12.602557
