60 
5nyh_ligand_dft.xyz
 C   -0.425920   33.450984   21.757233
 C   -1.653283   32.402999   23.697822
 C   -0.584689   32.068777   25.818244
 C    0.669536   32.428321   25.245311
 C    1.567915   32.425476   26.322425
 C    2.954550   32.920838   26.505703
 C    5.174992   33.276355   25.574532
 C    3.818587   31.542670   24.571090
 C    1.331895   35.121912   22.263444
 C    2.712844   35.035857   22.077908
 C    1.711149   36.290162   24.340660
 C    0.352333   34.883339   19.990221
 C    6.157482   37.361490   25.952314
 C    4.592538   36.762713   27.558875
 C    3.457734   36.788747   26.543633
 N    0.450817   34.431776   21.377070
 O   -1.264198   33.055030   20.936249
 C   -0.398894   32.883798   23.142553
 C    0.747486   32.830674   23.902182
 C   -1.745093   32.016125   25.015347
 O   -2.765980   32.351319   22.945651
 N    0.818568   32.094911   27.388685
 N   -0.471546   31.850149   27.143681
 N    3.851794   32.645303   25.532712
 C    5.935952   32.639855   24.397976
 C    4.843828   31.991764   23.534521
 O    3.231988   33.604978   27.492315
 C    3.097565   36.138869   24.206023
 C    3.582933   35.537492   23.032648
 C    0.841914   35.797266   23.374951
 N    3.995621   36.507791   25.219092
 C    5.086364   37.414049   24.870026
 O    5.622612   37.669758   27.216787
 H    5.658793   33.091222   26.539143
 H    5.044602   34.358118   25.467060
 H    2.822777   31.383910   24.161139
 H    4.137799   30.609226   25.056678
 H    3.104140   34.508734   21.211795
 H    1.298182   36.784704   25.211962
 H    1.178891   35.566569   19.792253
 H    0.401473   34.031742   19.308490
 H   -0.596188   35.401962   19.818085
 H    6.614300   36.357291   25.964438
 H    6.938128   38.099681   25.749735
 H    4.224434   37.064006   28.542156
 H    4.984010   35.737179   27.628888
 H    2.953590   37.770438   26.578049
 H    2.742990   36.006374   26.812251
 H    1.697724   33.157721   23.501866
 H   -2.698951   31.693115   25.414713
 H   -2.497595   32.507956   22.014228
 H    1.153704   32.070217   28.341713
 H    6.625348   31.871218   24.762792
 H    6.527725   33.376431   23.847881
 H    4.385280   32.734905   22.873276
 H    5.212667   31.164158   22.923645
 H    4.652282   35.401038   22.900633
 H   -0.230594   35.883754   23.517474
 H    5.521741   37.124819   23.910308
 H    4.715355   38.448964   24.775469
