24 
5nzo_ligand_ani-2x.xyz
 C  -25.941856   14.544429    6.678075
 C  -26.900556   14.282885    5.694323
 C  -27.035872   12.982614    5.204452
 C  -27.754356   15.372449    5.185809
 C  -28.738091   15.327176    4.167678
 C  -29.229179   16.615434    4.103960
 C  -28.696343   18.747678    5.307197
 N  -28.547137   17.338303    5.024016
 N  -27.646078   16.596476    5.697344
 C  -25.134825   13.519679    7.156764
 N  -30.173952   17.242699    3.281644
 C  -26.228564   11.959283    5.684343
 C  -25.274484   12.225321    6.662535
 H  -25.838243   15.555812    7.060886
 H  -27.780103   12.767576    4.442664
 H  -29.055180   14.491789    3.558768
 H  -28.854185   19.290696    4.370824
 H  -29.541590   18.939218    5.978829
 H  -27.773337   19.081385    5.782024
 H  -24.392040   13.733603    7.921322
 H  -30.592507   16.593438    2.628793
 H  -30.905637   17.706612    3.809485
 H  -26.345009   10.952113    5.293349
 H  -24.641279   11.426833    7.039717
