24 
5nzo_ligand_dft.xyz
 C    1.879449    1.178288   -0.134503
 C    1.213711   -0.045360   -0.000892
 C    1.972481   -1.211478    0.132379
 C   -0.258704   -0.094512   -0.000939
 C   -1.099334   -1.229291   -0.092209
 C   -2.379576   -0.717085   -0.054396
 C   -3.324773    1.596159    0.147365
 N   -2.257963    0.628974    0.063217
 N   -0.970486    1.026997    0.077065
 C    3.267491    1.230312   -0.135522
 N   -3.643880   -1.319188   -0.050868
 C    3.362429   -1.158882    0.127742
 C    4.016086    0.062227   -0.006632
 H    1.291308    2.084307   -0.237268
 H    1.474906   -2.169730    0.251730
 H   -0.822877   -2.267878   -0.197679
 H   -3.625861    1.949325   -0.845374
 H   -4.180328    1.133447    0.645222
 H   -2.967351    2.443274    0.733204
 H    3.768749    2.188333   -0.240543
 H   -3.568261   -2.326296    0.015082
 H   -4.196506   -1.083253   -0.868604
 H    3.935636   -2.075498    0.233641
 H    5.101328    0.104219   -0.009676
