24 
5nzo_ligand_aiqm1.xyz
 C  -25.903566   14.546042    6.651492
 C  -26.891814   14.293919    5.691362
 C  -27.062047   12.985726    5.222915
 C  -27.732884   15.386411    5.189468
 C  -28.716079   15.334201    4.170100
 C  -29.207832   16.621523    4.097521
 C  -28.738446   18.750457    5.321854
 N  -28.538530   17.353792    5.017335
 N  -27.640684   16.614007    5.705998
 C  -25.104939   13.513902    7.127570
 N  -30.144211   17.232029    3.254416
 C  -26.260956   11.954051    5.701882
 C  -25.279406   12.214877    6.654866
 H  -25.773337   15.556400    7.015726
 H  -27.824903   12.771573    4.485013
 H  -29.015849   14.497559    3.560800
 H  -28.750439   19.327006    4.399501
 H  -29.674512   18.905170    5.862413
 H  -27.907139   19.067174    5.943842
 H  -24.343659   13.720286    7.869268
 H  -30.598568   16.554711    2.659871
 H  -30.851378   17.733856    3.773970
 H  -26.403324   10.946792    5.331090
 H  -24.655897   11.412037    7.026526
