15 
5nzp_ligand_aiqm1.xyz
 C  -26.376059   12.574612    6.031084
 C  -26.631074   13.933541    6.169398
 C  -26.145604   14.690766    7.220727
 C  -26.610778   16.063457    6.995045
 N  -27.487108   15.945611    5.902043
 C  -25.576534   12.002684    7.016352
 C  -25.339566   14.106674    8.197307
 C  -25.062660   12.752022    8.085503
 O  -27.378295   14.666054    5.296744
 O  -26.383738   17.103385    7.570221
 H  -26.770594   12.003490    5.205113
 H  -27.462484   16.656458    5.185435
 H  -25.345271   10.947776    6.951112
 H  -24.955501   14.704791    9.011994
 H  -24.448335   12.264879    8.828924
