15 
5nzp_ligand_xtb.xyz
 C  -26.356719   12.566064    6.034366
 C  -26.604348   13.924607    6.134992
 C  -26.105353   14.689844    7.193588
 C  -26.561031   16.069481    6.971721
 N  -27.285429   15.973666    5.812339
 C  -25.588577   11.995080    7.033334
 C  -25.336269   14.101914    8.186752
 C  -25.085149   12.746478    8.092896
 O  -27.328747   14.685913    5.272367
 O  -26.391802   17.089462    7.596387
 H  -26.747985   11.989832    5.212468
 H  -27.762178   16.687631    5.288647
 H  -25.374577   10.937937    6.988560
 H  -24.954868   14.699794    8.998874
 H  -24.490568   12.258497    8.849708
