20 
5nzq_ligand_ani-2x.xyz
 N  -23.851403   14.251439    8.393790
 C  -25.523670   11.818108    6.169802
 C  -24.690187   12.340390    7.150325
 C  -26.402150   12.637566    5.472792
 C  -28.300675   16.751466    4.541759
 C  -28.282622   14.703531    4.052882
 C  -25.607907   14.532294    6.746374
 N  -28.874621   15.916704    3.746746
 O  -27.374209   16.211082    5.357258
 C  -24.726042   13.708927    7.449926
 C  -26.444706   14.002341    5.762647
 C  -27.364341   14.877351    5.036994
 H  -23.527460   13.598951    9.092840
 H  -24.157745   15.118877    8.812209
 H  -25.485424   10.755010    5.948866
 H  -24.000953   11.693866    7.688482
 H  -27.050731   12.220775    4.708409
 H  -28.470448   17.815879    4.631505
 H  -28.566319   13.797681    3.537479
 H  -25.635186   15.595761    6.967516
