25 
5o0a_ligand_xtb.xyz
 C   -9.961872  -36.260243  -20.907460
 C   -7.697917  -33.473688  -20.058322
 C   -4.752214  -37.329417  -21.970931
 C   -3.845568  -36.905889  -21.012351
 C   -4.280643  -36.151233  -19.936367
 C   -5.615185  -35.804351  -19.818604
 C   -6.516671  -36.206514  -20.797168
 C   -6.085783  -36.983046  -21.867582
 N   -7.882441  -35.882975  -20.716434
 C   -8.466497  -34.714924  -20.351551
 C   -9.840398  -34.924878  -20.457220
 N   -8.786329  -36.812973  -21.054783
 C  -10.976970  -34.031101  -20.210734
 O  -10.738535  -32.961000  -19.414266
 O  -12.072647  -34.214986  -20.665605
 H  -10.864684  -36.800260  -21.104885
 H   -7.548194  -33.331703  -18.985776
 H   -6.717794  -33.520061  -20.530158
 H   -8.224056  -32.605736  -20.454572
 H   -4.418749  -37.930065  -22.803332
 H   -2.803270  -37.172907  -21.097411
 H   -3.580799  -35.837282  -19.176588
 H   -5.953699  -35.249568  -18.957695
 H   -6.809230  -37.309052  -22.597829
 H   -9.842855  -32.963447  -19.056076
