25 
5o0a_ligand_dft.xyz
 C    1.563474   -1.606548   -0.465572
 C    0.654949    1.815446    0.606071
 C   -3.747090   -0.897031    0.640728
 C   -4.307034    0.259822    0.102505
 C   -3.495017    1.187001   -0.542983
 C   -2.125905    0.962928   -0.651484
 C   -1.573275   -0.184773   -0.089522
 C   -2.379070   -1.122604    0.552058
 N   -0.174571   -0.429138   -0.178750
 C    0.851020    0.422021    0.094379
 C    2.011584   -0.316639   -0.102662
 N    0.249904   -1.673446   -0.517595
 C    3.430692    0.046617    0.074186
 O    3.735434    1.369228    0.021474
 O    4.301995   -0.763044    0.258126
 H    2.171513   -2.469875   -0.695682
 H    0.607642    2.554353   -0.203420
 H   -0.275679    1.897498    1.173052
 H    1.478948    2.086300    1.271541
 H   -4.377881   -1.626819    1.138385
 H   -5.375659    0.433776    0.179671
 H   -3.927059    2.081822   -0.979792
 H   -1.494812    1.663194   -1.188684
 H   -1.925406   -2.017487    0.962548
 H    2.985648    1.868416   -0.326224
