20 
5o1s_ligand_ani-2x.xyz
 C   -4.160338   19.568358  -21.669519
 C   -6.905900   14.637412  -17.385130
 O   -7.613179   15.445378  -18.329571
 C   -7.137783   16.688878  -18.487746
 O   -6.194144   17.123621  -17.868202
 C   -7.946220   17.467291  -19.503592
 C   -7.271648   18.783979  -19.857802
 C   -6.050223   18.562319  -20.723987
 O   -5.752622   17.516090  -21.253174
 O   -5.335532   19.688025  -20.863729
 H   -3.471582   18.836608  -21.239693
 H   -4.418819   19.257883  -22.684942
 H   -3.709377   20.560540  -21.675697
 H   -5.862997   14.514751  -17.688224
 H   -6.935168   15.090929  -16.391295
 H   -7.419223   13.676017  -17.382587
 H   -8.939910   17.642728  -19.073089
 H   -8.080203   16.851870  -20.398944
 H   -6.972618   19.318635  -18.950563
 H   -7.958014   19.435687  -20.412516
