73 
5o22_ligand_ani-2x.xyz
 C   -3.570272    2.683222   -1.062788
 C   -0.535206    3.633411    0.213469
 C    0.712945    1.024421    1.058599
 C    2.021554    1.120710    0.804694
 C    3.266654    0.064309    2.761433
 C    2.844884   -1.327740    2.286382
 C    2.367601   -2.193715    3.448451
 C    3.670667   -3.349098    0.918463
 C   -6.024987    0.917405   -3.554128
 C   -5.007817    0.990515   -2.408890
 C   -3.918965   -0.028295   -2.627281
 C   -3.621611   -1.010499   -1.782018
 C   -2.614120   -2.096044   -2.023558
 O   -1.891380   -1.877145   -3.213058
 C   -1.604284   -2.282353   -0.869038
 O   -0.925063   -3.472542   -1.186926
 C   -4.487580    2.437688   -2.267521
 C   -2.098327    2.335183   -1.315607
 C   -1.240053    2.297922   -0.033815
 C   -0.256358    1.121561   -0.104932
 C    0.081237    0.816645    2.408358
 C    3.126210    1.279541    1.825903
 C    2.996332    2.577384    2.636454
 C    4.010186   -1.955022    1.497305
 O    4.324226   -1.031294    0.477030
 C    5.491102   -1.336069   -0.253320
 C    2.419819   -3.298358    0.075499
 O    1.321950   -3.652979    0.481597
 O    2.612655   -2.777284   -1.128584
 O    3.769008    0.205354    3.855252
 O   -1.086213   -0.080985   -0.127152
 C   -0.613247   -1.122998   -0.805593
 O    0.484066   -1.140719   -1.329618
 H   -3.642292    3.732243   -0.743720
 H   -3.941001    2.079651   -0.221113
 H    0.059080    3.608643    1.132697
 H    0.143595    3.874030   -0.615308
 H   -1.259936    4.450956    0.302659
 H    2.342272    1.071451   -0.238283
 H    2.028228   -1.195021    1.566267
 H    1.563935   -1.689993    3.996237
 H    1.968669   -3.144791    3.082380
 H    3.183116   -2.390809    4.150846
 H    4.508675   -3.708301    0.315074
 H    3.505584   -4.058489    1.730629
 H   -5.535406    1.151463   -4.507418
 H   -6.838184    1.637865   -3.409423
 H   -6.464758   -0.081729   -3.638388
 H   -5.521237    0.731852   -1.468381
 H   -3.335394    0.065710   -3.546045
 H   -4.138845   -1.102651   -0.826333
 H   -3.153808   -3.054411   -2.076964
 H   -1.207820   -2.564888   -3.221141
 H   -2.145916   -2.356736    0.086450
 H   -0.172925   -3.571886   -0.571740
 H   -5.368115    3.088985   -2.185478
 H   -3.978661    2.732107   -3.198799
 H   -2.048833    1.370099   -1.830937
 H   -1.668578    3.057962   -2.023464
 H   -1.897759    2.076120    0.816586
 H    0.298957    1.160235   -1.047877
 H    0.819596    0.663130    3.200888
 H   -0.545387    1.675494    2.680874
 H   -0.579070   -0.057269    2.372007
 H    4.072325    1.302129    1.273327
 H    2.080219    2.596733    3.235485
 H    2.966416    3.432647    1.955148
 H    3.846495    2.691317    3.311520
 H    4.882600   -2.069312    2.161391
 H    5.788937   -0.415793   -0.762523
 H    5.312038   -2.113537   -1.007167
 H    6.311527   -1.656651    0.407907
 H    1.736651   -2.491383   -1.475332
