73 
5o22_ligand_aiqm1.xyz
 C   -3.521749    2.711078   -1.130239
 C   -0.616462    3.550086    0.251062
 C    0.740662    1.032109    1.060415
 C    2.036560    1.274557    0.819006
 C    3.262597    0.119493    2.746142
 C    2.811710   -1.239756    2.205091
 C    2.204116   -2.085644    3.322988
 C    3.589133   -3.274195    0.868682
 C   -6.138103    0.846274   -3.347225
 C   -5.032512    0.973946   -2.295799
 C   -3.995019   -0.081063   -2.555591
 C   -3.636663   -1.034754   -1.696274
 C   -2.659648   -2.127090   -2.011253
 O   -2.081950   -1.914821   -3.282414
 C   -1.547460   -2.316376   -0.958831
 O   -0.890126   -3.494114   -1.366045
 C   -4.454265    2.395125   -2.302537
 C   -2.089490    2.215870   -1.323707
 C   -1.264087    2.195532   -0.028294
 C   -0.232404    1.067523   -0.099244
 C    0.147979    0.721543    2.410663
 C    3.153428    1.337249    1.834894
 C    3.135049    2.633922    2.647646
 C    4.001633   -1.939527    1.533224
 O    4.525864   -1.010379    0.607581
 C    5.674617   -1.440916   -0.093876
 C    2.391139   -3.061534   -0.009320
 O    1.247887   -3.255753    0.366184
 O    2.690412   -2.581862   -1.208611
 O    3.749637    0.207445    3.853160
 O   -1.001516   -0.166388   -0.112785
 C   -0.584520   -1.141112   -0.914879
 O    0.445872   -1.082602   -1.549630
 H   -3.510264    3.791424   -0.950096
 H   -3.941854    2.253530   -0.227716
 H   -0.109960    3.573124    1.217749
 H    0.117166    3.791599   -0.523904
 H   -1.372463    4.337479    0.250097
 H    2.330585    1.478317   -0.210351
 H    2.072013   -1.060405    1.440494
 H    1.403502   -1.532671    3.813998
 H    1.777636   -3.004661    2.924028
 H    2.952896   -2.325438    4.077804
 H    4.427099   -3.662113    0.292088
 H    3.336992   -3.991294    1.648744
 H   -5.720022    1.001084   -4.345112
 H   -6.922031    1.590338   -3.188815
 H   -6.595111   -0.143769   -3.323041
 H   -5.470921    0.793751   -1.304693
 H   -3.536931   -0.065027   -3.542235
 H   -4.081646   -1.074130   -0.704823
 H   -3.192871   -3.087196   -1.997459
 H   -1.389824   -2.577067   -3.363814
 H   -1.998952   -2.425875    0.032206
 H   -0.102001   -3.593821   -0.814763
 H   -5.298595    3.091962   -2.278532
 H   -3.935885    2.568155   -3.252416
 H   -2.103557    1.212629   -1.740455
 H   -1.578466    2.843383   -2.064936
 H   -1.932772    1.949637    0.801985
 H    0.326160    1.132751   -1.041396
 H    0.884552    0.748397    3.213855
 H   -0.641229    1.435393    2.660786
 H   -0.311634   -0.269315    2.402491
 H    4.093180    1.303296    1.275674
 H    2.207807    2.735714    3.216466
 H    3.219571    3.497794    1.986081
 H    3.963553    2.650887    3.352633
 H    4.771503   -2.188963    2.278777
 H    6.077824   -0.562261   -0.590680
 H    5.429499   -2.191699   -0.848004
 H    6.428241   -1.843617    0.592195
 H    1.865493   -2.215884   -1.587490
