24 
5o4t_ligand_ani-2x.xyz
 C    7.034066  -11.095839    4.839979
 C    6.550519  -10.297676    5.877832
 C    7.375390   -9.911279    6.924335
 C    8.703944  -10.321170    6.946334
 C    9.198992  -11.114915    5.921752
 C    8.381477  -11.511705    4.862393
 C   10.266959  -12.744892    3.844684
 C    4.813605  -11.061254    3.753630
 C    8.105722  -12.731307    2.756883
 C    6.638882  -12.277343    2.731761
 N    6.206873  -11.491911    3.776255
 N    8.873439  -12.315229    3.820819
 O    8.538976  -13.426629    1.861809
 O    5.917361  -12.613917    1.816074
 H    5.517105   -9.970716    5.873841
 H    6.977220   -9.289321    7.722000
 H    9.358951  -10.024092    7.761413
 H   10.236574  -11.426963    5.952030
 H   10.438078  -13.350820    2.957105
 H   10.938884  -11.880362    3.827413
 H   10.471508  -13.345364    4.737313
 H    4.746734   -9.968605    3.724510
 H    4.357931  -11.473123    2.855320
 H    4.279011  -11.433868    4.633713
