24 
5o4t_ligand_xtb.xyz
 C    7.035613  -11.096143    4.835386
 C    6.556198  -10.292737    5.869522
 C    7.380589   -9.905264    6.907040
 C    8.702673  -10.314749    6.929968
 C    9.196163  -11.110537    5.915389
 C    8.379627  -11.512556    4.858761
 C   10.249160  -12.747143    3.849140
 C    4.829133  -11.066687    3.754022
 C    8.094004  -12.725207    2.782349
 C    6.651608  -12.278506    2.757388
 N    6.214952  -11.489869    3.789664
 N    8.866675  -12.311925    3.836080
 O    8.536038  -13.423759    1.894725
 O    5.920330  -12.614501    1.849855
 H    5.530889   -9.964845    5.868060
 H    6.988154   -9.283692    7.696435
 H    9.352534  -10.015773    7.737310
 H   10.226745  -11.419572    5.949588
 H   10.398985  -13.355629    2.958084
 H   10.922340  -11.889912    3.817111
 H   10.453961  -13.349187    4.734996
 H    4.760483   -9.979281    3.709589
 H    4.390270  -11.492060    2.852290
 H    4.291075  -11.438766    4.626447
