49 
5o55_ligand_xtb.xyz
 C   -4.525671   -0.069577   -3.049618
 C   -6.121498   -1.135969    2.199863
 C    3.344745    2.659143    1.296259
 C    4.152812   -1.935995    1.055924
 C    5.037099    3.695538   -0.982149
 C   -0.515141   -0.640318   -0.735969
 C   -1.779909   -0.865749   -1.251367
 C    4.925020    0.215314   -0.946174
 C   -1.429642   -0.575739    1.473397
 C   -4.409593   -1.404592   -2.320590
 C    1.000761   -0.238667    1.261153
 C   -0.325971   -0.504134    0.634762
 C   -5.073147   -1.092898    1.369960
 C    4.047299    1.802136    0.310227
 C    4.118191    0.421916    0.184576
 C   -5.284475   -1.273378   -0.087358
 C   -2.700136   -0.811371    0.966922
 C   -2.890142   -0.971713   -0.419298
 C    3.434347   -0.590956    1.052587
 N    5.323928    1.361953   -1.460278
 N   -3.780189   -0.890787    1.803160
 N    2.057121   -0.770916    0.613753
 N    4.790721    2.313284   -0.696330
 N   -4.174781   -1.223227   -0.897082
 O    1.110878    0.394290    2.298220
 O   -6.391935   -1.468144   -0.551219
 H   -5.371903    0.488215   -2.656550
 H   -3.626734    0.529407   -2.922417
 H   -4.686681   -0.242285   -4.110309
 H   -6.013495   -1.011123    3.262408
 H   -7.104535   -1.301113    1.804228
 H    4.059745    3.158640    1.951306
 H    2.759691    3.425721    0.788684
 H    2.672582    2.058808    1.903757
 H    4.149962   -2.373821    0.060012
 H    3.658704   -2.622462    1.739518
 H    5.183348   -1.803769    1.373619
 H    4.104835    4.216555   -1.211395
 H    5.515599    4.185798   -0.132036
 H    5.697178    3.738892   -1.845691
 H    0.311448   -0.536334   -1.422954
 H   -1.884167   -0.953213   -2.319544
 H    5.235588   -0.706665   -1.395274
 H   -1.286722   -0.443989    2.535364
 H   -5.354979   -1.945205   -2.409967
 H   -3.613086   -2.022616   -2.739482
 H    3.366986   -0.201618    2.074747
 H   -3.630132   -0.757581    2.792379
 H    1.916173   -1.279284   -0.244136
