51 
5o5a_ligand_ani-2x.xyz
 C    6.431490   -9.399610    2.914303
 C   10.704779  -13.376956    8.898676
 C    7.222534   -9.020398   15.496785
 C    7.939741   -8.333406   14.523106
 C    7.455963  -10.379388   15.694549
 C    8.878466   -8.998953   13.742853
 C    8.397547  -11.054346   14.926931
 C    8.682612  -10.260777    6.964183
 C    7.882492  -10.384199    5.841444
 C   11.498068  -12.483209   12.596108
 C   10.058730  -12.077697    6.204265
 C   10.405915  -10.732420   11.856883
 C    6.142431  -10.756784    3.546214
 C   12.062441  -11.732685   10.135036
 C   10.572942  -10.917457    8.421397
 C   11.354439  -11.647587   11.466649
 C    9.758743  -11.128709    7.177185
 C    9.101509  -10.360553   13.942916
 C    8.920046  -13.294572    2.888813
 C    7.708336  -12.378141    2.681980
 C    9.271594  -12.190306    5.065307
 C    8.153151  -11.365274    4.881505
 N   10.705487  -12.124331   13.594082
 N    9.570933  -13.132548    4.080216
 N   11.180491  -12.006020    8.999456
 N   10.051174  -11.041435   13.135212
 N    7.357585  -11.557133    3.735464
 O   10.681090   -9.795225    8.903477
 O    9.267075  -14.103617    2.058146
 O    7.086935  -12.404243    1.638978
 H    7.142314   -8.822803    3.515699
 H    6.862664   -9.540386    1.918310
 H    5.506983   -8.822129    2.814250
 H   11.368157  -13.995583    8.279739
 H   10.673928  -13.820952    9.898658
 H    9.696068  -13.407224    8.479780
 H    6.486335   -8.499769   16.102957
 H    7.769383   -7.271843   14.361977
 H    6.903446  -10.921973   16.457434
 H    9.452609   -8.457785   12.995553
 H    8.593259  -12.110172   15.085229
 H    8.486072   -9.488926    7.701269
 H    7.053293   -9.695860    5.713272
 H   12.146970  -13.343900   12.709764
 H   10.916449  -12.734190    6.320693
 H    9.951510   -9.911698   11.315003
 H    5.489824  -11.342629    2.898912
 H    5.638288  -10.658165    4.511528
 H   12.819100  -12.523527   10.175567
 H   12.576272  -10.792601    9.912252
 H   10.375637  -13.732705    4.208037
