94 
5o9o_ligand_ani-2x.xyz
 C   -3.542658    1.851654    0.687877
 C   -2.495335    2.836734    0.169194
 C   -2.503158    4.168597    0.909810
 C   -3.383655    0.475438    0.020081
 C    5.082206   -2.367629    1.533235
 C    3.979293   -1.540411    1.894726
 C    2.651596   -2.049601    1.964593
 C    1.598579   -1.219175    2.252793
 C    1.815543    0.159100    2.473405
 C    3.092688    0.670216    2.437699
 C    4.210026   -0.170751    2.166952
 C    5.548744    0.310703    2.147373
 C    6.590809   -0.519069    1.816461
 C    6.360063   -1.871535    1.477480
 C    7.522226   -2.714036    0.999176
 O    8.213418   -2.119175   -0.090174
 C    7.672116   -2.393782   -1.367639
 C    6.332418   -1.778193   -1.648646
 C    5.862607   -0.502638   -1.454944
 N    5.341778   -2.519443   -2.216271
 N    4.299539   -1.772856   -2.376193
 N    4.590026   -0.547305   -1.927179
 C    3.569372    0.487856   -2.024434
 C    2.281087    0.020196   -1.345080
 O    1.641386   -1.006434   -2.069676
 O    4.114173    1.600659   -1.362858
 C    3.252901    2.745725   -1.316787
 C    4.027434    3.790920   -0.518522
 O    4.409115    3.249460    0.732284
 C    1.913166    2.429758   -0.647957
 O    1.082249    3.547359   -0.871554
 C    1.284291    1.149315   -1.199083
 O    0.294560    0.665422   -0.301228
 C   -1.003711    1.131920   -0.467380
 C   -1.934420    0.019003    0.007745
 O   -1.815656   -1.092730   -0.850995
 O   -1.183849    2.290507    0.303165
 O   -1.536464    5.070477    0.399196
 O   -4.803276    2.414022    0.411055
 O   -4.146978   -0.466471    0.760296
 C   -5.217038   -1.043553    0.078808
 O   -6.202242   -0.033840   -0.097718
 C   -7.406079   -0.461535   -0.729186
 C   -8.279422    0.779710   -0.829323
 O   -9.492885    0.413970   -1.482375
 C   -8.058427   -1.576533    0.100227
 O   -9.172711   -2.147710   -0.546889
 C   -7.063011   -2.705851    0.312243
 O   -7.580686   -3.687297    1.185042
 C   -5.770627   -2.189592    0.915471
 O   -4.803405   -3.211187    0.955281
 H   -3.390224    1.705942    1.772184
 H   -2.702395    3.018481   -0.901077
 H   -3.515089    4.596138    0.889602
 H   -2.224173    3.995275    1.954469
 H   -3.739926    0.536033   -1.019904
 H    4.881838   -3.408983    1.288403
 H    2.491697   -3.105361    1.762031
 H    0.588041   -1.622075    2.295883
 H    0.964268    0.811644    2.653141
 H    3.267082    1.732641    2.587770
 H    5.741015    1.352114    2.398650
 H    7.605457   -0.129794    1.779646
 H    8.272921   -2.810406    1.792706
 H    7.174623   -3.725553    0.733761
 H    7.562737   -3.473872   -1.536643
 H    8.420338   -2.018658   -2.075719
 H    6.280263    0.373912   -0.979457
 H    3.386946    0.704050   -3.087062
 H    2.571650   -0.311272   -0.337690
 H    2.290353   -1.723385   -2.165027
 H    3.054913    3.106404   -2.337951
 H    4.907789    4.113861   -1.093997
 H    3.396624    4.663543   -0.328017
 H    4.733672    2.362192    0.519558
 H    2.080169    2.262285    0.425460
 H    0.300119    3.451933   -0.301513
 H    0.838677    1.363430   -2.182544
 H   -1.192485    1.368506   -1.531931
 H   -1.646486   -0.225014    1.043984
 H   -0.867704   -1.277230   -0.934943
 H   -1.774296    5.288902   -0.510984
 H   -5.467572    1.706318    0.458818
 H   -4.883796   -1.420052   -0.904645
 H   -7.190210   -0.842838   -1.740675
 H   -7.750801    1.559119   -1.395108
 H   -8.476982    1.153160    0.185754
 H  -10.143745    1.112773   -1.353569
 H   -8.336131   -1.164217    1.087218
 H   -9.667000   -1.416322   -0.955026
 H   -6.833132   -3.151297   -0.672845
 H   -8.428832   -3.965622    0.810529
 H   -5.985197   -1.791731    1.920622
 H   -5.209014   -3.939066    1.445970
