94 
5o9o_ligand_aiqm1.xyz
 C   -3.446457    1.616833    1.043350
 C   -2.351429    2.564919    0.567654
 C   -2.203220    3.800669    1.424870
 C   -3.431547    0.337344    0.214570
 C    5.143518   -1.947464    1.517445
 C    4.129000   -1.074613    2.005504
 C    2.788296   -1.509506    2.185653
 C    1.819606   -0.633893    2.618532
 C    2.151361    0.716997    2.897832
 C    3.441349    1.160183    2.736747
 C    4.461494    0.277422    2.290107
 C    5.806927    0.702212    2.103458
 C    6.764429   -0.166856    1.646514
 C    6.436737   -1.519324    1.340878
 C    7.539790   -2.446736    0.880754
 O    8.283209   -1.928168   -0.220474
 C    7.770989   -2.323289   -1.485788
 C    6.374938   -1.856696   -1.731515
 C    5.846772   -0.591370   -1.880464
 N    5.349289   -2.748092   -1.773962
 N    4.232838   -2.105130   -1.933106
 N    4.517051   -0.791041   -2.003779
 C    3.438547    0.190635   -2.072245
 C    2.220059   -0.306272   -1.282562
 O    1.589817   -1.383478   -1.935741
 O    3.976529    1.365581   -1.515986
 C    3.041587    2.449478   -1.483571
 C    3.806077    3.614246   -0.883863
 O    4.238307    3.350760    0.436720
 C    1.797155    2.104911   -0.669943
 O    0.916962    3.192627   -0.890980
 C    1.180647    0.792805   -1.160817
 O    0.219553    0.256353   -0.238172
 C   -1.046710    0.811547   -0.289591
 C   -2.046942   -0.270634    0.108366
 O   -2.099393   -1.262943   -0.894627
 O   -1.098549    1.890104    0.625794
 O   -1.176964    4.646660    0.922748
 O   -4.693404    2.272929    0.915828
 O   -4.327736   -0.586324    0.835470
 C   -5.352144   -1.038574    0.033050
 O   -6.299177    0.046669   -0.052739
 C   -7.432150   -0.260654   -0.862643
 C   -8.270711    1.003572   -0.869030
 O   -9.387875    0.782827   -1.730873
 C   -8.180590   -1.467018   -0.280617
 O   -9.228327   -1.926596   -1.115309
 C   -7.225673   -2.636221   -0.120307
 O   -7.833763   -3.728079    0.550190
 C   -6.017877   -2.229158    0.701236
 O   -5.078227   -3.275528    0.776994
 H   -3.259898    1.350802    2.094019
 H   -2.573431    2.858730   -0.473244
 H   -3.162456    4.318341    1.490810
 H   -1.890339    3.501123    2.424137
 H   -3.777070    0.571613   -0.795851
 H    4.873890   -2.974015    1.283841
 H    2.530427   -2.538295    1.953588
 H    0.792032   -0.964450    2.721694
 H    1.374575    1.401211    3.219055
 H    3.693140    2.200437    2.917543
 H    6.074326    1.729051    2.335730
 H    7.786842    0.164695    1.505922
 H    8.266521   -2.554391    1.687453
 H    7.140032   -3.435931    0.638354
 H    7.783499   -3.414501   -1.572726
 H    8.462446   -1.904565   -2.217508
 H    6.277238    0.393339   -1.863630
 H    3.172602    0.356738   -3.127311
 H    2.564096   -0.556922   -0.275740
 H    2.191393   -2.138154   -1.924564
 H    2.734678    2.707153   -2.507132
 H    4.652637    3.855652   -1.537506
 H    3.138934    4.471447   -0.827416
 H    4.792094    2.564466    0.417193
 H    2.068550    1.989427    0.378585
 H    0.367265    3.337764   -0.113033
 H    0.697332    0.967581   -2.130440
 H   -1.277933    1.177958   -1.302451
 H   -1.747349   -0.684863    1.077279
 H   -1.219226   -1.638477   -0.980577
 H   -1.537400    5.151738    0.191884
 H   -5.365806    1.588546    0.799338
 H   -5.004287   -1.278000   -0.981223
 H   -7.112344   -0.497129   -1.889932
 H   -7.663607    1.833335   -1.232875
 H   -8.608805    1.218033    0.148190
 H   -9.955302    1.552646   -1.697372
 H   -8.570049   -1.189730    0.711750
 H   -9.709161   -1.158947   -1.441520
 H   -6.887709   -2.948941   -1.116158
 H   -8.630508   -3.954705    0.064922
 H   -6.355359   -1.924331    1.699671
 H   -5.556763   -4.053809    1.075095
