88 
5o9q_ligand_aiqm1.xyz
 C   -7.896240   -0.123858    3.110105
 C   -7.138675   -1.143409    2.260624
 C   -8.066728   -2.152216    1.602156
 C   -6.940087    0.908886    3.672172
 C    9.311040   -1.269488    0.145596
 C   10.159964   -2.308950   -0.223423
 C   10.803975   -3.070269    0.749705
 C   10.601773   -2.781139    2.096050
 C    9.756895   -1.737106    2.465395
 C    9.100471   -0.979934    1.494670
 C    8.153998    0.112028    1.908916
 O    8.220831    1.181972    0.979441
 C    7.293562    2.208373    1.283628
 C    5.887839    1.829304    0.930460
 C    5.383447    1.212987   -0.195645
 N    4.854843    2.053879    1.787652
 N    3.752048    1.623590    1.247531
 N    4.058215    1.105288    0.039786
 C    3.024186    0.508234   -0.782741
 C    1.653145    1.130383   -0.482387
 O    1.181774    0.802884    0.801182
 O    3.405684    0.741461   -2.118710
 C    2.523042    0.096564   -3.043477
 C    3.102356    0.290747   -4.435288
 O    2.501984   -0.582024   -5.365614
 C    1.134890    0.714515   -2.898935
 O    0.263047    0.069447   -3.804348
 C    0.658707    0.547702   -1.466367
 O   -0.587251    1.210312   -1.285955
 C   -1.683186    0.378501   -1.093121
 C   -2.654367    1.111900   -0.179831
 O   -2.112741    1.204953    1.122197
 O   -2.228207    0.113734   -2.373875
 C   -3.395513   -0.717930   -2.303452
 C   -3.830080   -1.010337   -3.729766
 O   -4.753811   -2.075848   -3.779428
 C   -4.469226    0.019947   -1.502236
 O   -5.628661   -0.788114   -1.462241
 C   -3.953160    0.333659   -0.102071
 O   -4.926390    1.109817    0.598990
 C   -5.497015    0.490778    1.701893
 O   -6.460661   -0.440309    1.209409
 O   -8.532730   -3.109704    2.528648
 O   -8.561826   -0.815514    4.152660
 O   -7.717772    1.841849    4.402765
 C   -6.178849    1.564863    2.538771
 O   -5.234186    2.437407    3.126123
 H   -8.627218    0.396469    2.476608
 H   -6.406554   -1.674475    2.888121
 H   -7.514829   -2.694602    0.836333
 H   -8.895942   -1.614762    1.122281
 H   -6.218849    0.415733    4.334331
 H    8.820672   -0.665501   -0.608662
 H   10.322131   -2.523727   -1.272796
 H   11.462726   -3.878040    0.460073
 H   11.103257   -3.361833    2.859444
 H    9.608279   -1.508883    3.514789
 H    7.124852   -0.271332    1.952069
 H    8.412040    0.472382    2.912061
 H    7.615424    3.078218    0.709994
 H    7.325653    2.467142    2.345427
 H    5.832944    0.863235   -1.107643
 H    2.994577   -0.573888   -0.583211
 H    1.730334    2.213126   -0.637356
 H    1.761886    1.206284    1.456412
 H    2.467733   -0.978923   -2.820330
 H    4.166212    0.056214   -4.414493
 H    2.984965    1.342282   -4.727727
 H    1.549126   -0.457714   -5.304217
 H    1.194243    1.787724   -3.127688
 H   -0.647161    0.222974   -3.514583
 H    0.542613   -0.519682   -1.261955
 H   -1.376723   -0.566140   -0.620982
 H   -2.846460    2.105667   -0.602763
 H   -1.168501    1.385395    1.046381
 H   -3.148084   -1.664978   -1.798775
 H   -4.239158   -0.092849   -4.174510
 H   -2.961043   -1.318090   -4.309838
 H   -5.466040   -1.866378   -3.166449
 H   -4.698594    0.970420   -2.004857
 H   -6.097678   -0.614335   -0.634255
 H   -3.776012   -0.603735    0.431751
 H   -4.738994   -0.051173    2.286171
 H   -8.905851   -2.627966    3.274026
 H   -8.929945   -0.154344    4.743799
 H   -7.126128    2.527020    4.722076
 H   -6.878765    2.111133    1.896064
 H   -4.691891    2.812314    2.428964
