52 
5oah_ligand_ani-2x.xyz
 O    6.810384   -0.393221   -0.053787
 C    6.080631    0.350353   -0.912727
 C    6.824313    1.103263   -1.843024
 O    8.177221    1.024374   -1.833442
 C    6.177261    1.920367   -2.752993
 C    4.783354    1.998383   -2.741844
 C    4.044917    1.252605   -1.839022
 C    4.680179    0.400960   -0.920859
 C    3.929186   -0.438465    0.053527
 O    4.502687   -1.030481    0.981682
 N    2.591168   -0.543402   -0.104594
 C    1.809579   -1.425724    0.732965
 C    0.535263   -1.771506   -0.019225
 O   -0.233106   -2.626394    0.655655
 O    0.235092   -1.290750   -1.089772
 C    1.505042   -0.831933    2.125283
 C    0.857930    0.557578    2.142032
 C   -0.532280    0.702205    1.507637
 C   -1.627282   -0.153612    2.155323
 N   -2.915774    0.021331    1.507897
 C   -3.398087   -0.834194    0.587842
 O   -2.803577   -1.864010    0.243529
 C   -4.730067   -0.528952   -0.039470
 C   -5.218110   -1.498161   -0.925240
 C   -6.434551   -1.336369   -1.566672
 C   -7.196970   -0.189381   -1.336569
 C   -6.726454    0.776609   -0.467690
 O   -7.381591    1.944109   -0.161800
 C   -5.494832    0.616472    0.184377
 O   -5.084975    1.607893    1.026234
 H    6.165375   -0.808585    0.568810
 H    8.423166    0.413192   -1.122368
 H    6.771185    2.494183   -3.457698
 H    4.275105    2.645781   -3.451007
 H    2.962584    1.355555   -1.836283
 H    2.146865   -0.270683   -0.970745
 H    2.361975   -2.359380    0.893600
 H   -1.144956   -2.562064    0.283032
 H    0.883101   -1.555047    2.668982
 H    2.462330   -0.777556    2.650951
 H    0.798158    0.877369    3.191360
 H    1.534047    1.265875    1.649282
 H   -0.830203    1.755964    1.589149
 H   -0.486423    0.484210    0.432966
 H   -1.376678   -1.214500    2.114823
 H   -1.731879    0.119891    3.213334
 H   -3.438763    0.864051    1.693904
 H   -4.603436   -2.377377   -1.085259
 H   -6.799821   -2.097444   -2.249469
 H   -8.154007   -0.054447   -1.836709
 H   -8.216105    1.984579   -0.644158
 H   -5.768572    2.296486    1.024746
