52 
5oah_ligand_xtb.xyz
 O    6.624270   -0.047916    0.062022
 C    5.859928    0.564048   -0.867900
 C    6.536439    1.401181   -1.777286
 O    7.881184    1.537395   -1.673223
 C    5.829465    2.072414   -2.754661
 C    4.451357    1.920783   -2.836574
 C    3.780515    1.101009   -1.957503
 C    4.471165    0.402108   -0.959263
 C    3.814895   -0.501364    0.012199
 O    4.442757   -1.041367    0.930784
 N    2.496618   -0.710673   -0.125409
 C    1.756072   -1.610739    0.721808
 C    0.430680   -1.916776    0.031746
 O   -0.319310   -2.729032    0.737284
 O    0.127143   -1.429092   -1.031445
 C    1.527905   -1.041635    2.138190
 C    0.960514    0.379024    2.183487
 C   -0.420715    0.583087    1.557524
 C   -1.541305   -0.210000    2.240263
 N   -2.793352   -0.041351    1.535999
 C   -3.318637   -0.932623    0.683131
 O   -2.830569   -2.041416    0.474199
 C   -4.584917   -0.537180   -0.002087
 C   -5.180861   -1.518100   -0.799529
 C   -6.345829   -1.280671   -1.492811
 C   -6.954014   -0.037125   -1.410587
 C   -6.381980    0.949281   -0.632356
 O   -6.919992    2.208526   -0.500245
 C   -5.196269    0.715417    0.080954
 O   -4.694763    1.742695    0.825849
 H    5.999372   -0.576632    0.627517
 H    8.168349    0.985869   -0.929511
 H    6.365299    2.709233   -3.439704
 H    3.904036    2.452168   -3.599580
 H    2.709112    1.012171   -2.047888
 H    1.979704   -0.376945   -0.927798
 H    2.313387   -2.550426    0.837578
 H   -1.281432   -2.682238    0.463459
 H    0.883212   -1.735496    2.676660
 H    2.499633   -1.027433    2.634659
 H    0.918186    0.682337    3.232583
 H    1.661333    1.047705    1.678367
 H   -0.667005    1.646950    1.617402
 H   -0.397448    0.320685    0.500823
 H   -1.311368   -1.275024    2.260943
 H   -1.672997    0.139561    3.268915
 H   -3.226017    0.868251    1.594214
 H   -4.688452   -2.476231   -0.852959
 H   -6.787260   -2.054174   -2.100530
 H   -7.868478    0.167788   -1.949841
 H   -7.722438    2.271754   -1.028465
 H   -5.287522    2.500221    0.705096
