62 
5oci_ligand_xtb.xyz
 C   66.848412   33.831970   23.889211
 C   65.635839   33.302544   24.429480
 C   65.608286   32.743905   25.696619
 O   64.489850   33.335266   23.731316
 C   68.025524   33.133198   25.846512
 C   66.802389   32.674232   26.398585
 C   68.996376   32.859871   26.858266
 C   70.452909   33.182967   26.830829
 C   71.032807   33.013238   25.454320
 C   71.694335   34.057260   24.823457
 C   72.029285   32.689858   22.881295
 C   70.887102   31.805862   24.784517
 C   71.172333   30.329359   22.782111
 C   68.605174   37.372811   25.249520
 C   67.856216   36.657663   24.338047
 C   69.773625   36.444091   22.925468
 N   70.722116   38.421124   25.881200
 C   70.095689   39.130799   26.976870
 C   70.994674   40.308180   27.372947
 C   72.890542   39.200850   26.650309
 C   72.056494   37.984232   26.246507
 C   68.039923   33.701503   24.578969
 C   66.787706   34.449548   22.544579
 O   65.955081   34.073384   21.713164
 N   67.108644   32.183077   27.623001
 N   68.425133   32.297336   27.893874
 C   71.375007   31.630160   23.497615
 C   72.192219   33.893104   23.543046
 C   68.435587   36.158127   23.176785
 C   69.956607   37.648035   25.018308
 C   70.515213   37.179134   23.824305
 N   67.671071   35.432721   22.236728
 C   67.728128   35.894514   20.862047
 O   72.291146   39.888413   27.722566
 H   64.680534   32.360545   26.088242
 H   64.714416   33.582612   22.803008
 H   70.959503   32.531989   27.547855
 H   70.592088   34.216914   27.161958
 H   71.811752   35.002884   25.332727
 H   72.414583   32.569515   21.878733
 H   70.373144   30.991091   25.275197
 H   71.254445   29.492152   23.471717
 H   70.175865   30.301643   22.339768
 H   71.901161   30.204291   21.984844
 H   68.123344   37.712020   26.152238
 H   66.812518   36.467854   24.538883
 H   70.240103   36.083063   22.022030
 H   69.133191   39.527461   26.653587
 H   69.947781   38.477511   27.851820
 H   71.047356   41.015119   26.530440
 H   70.590599   40.818341   28.248734
 H   73.879182   38.893948   26.995298
 H   72.995509   39.873989   25.785524
 H   72.007690   37.293293   27.105153
 H   72.534255   37.472962   25.413156
 H   68.972209   34.016067   24.140211
 H   66.495073   31.764519   28.301302
 H   72.707755   34.709175   23.057382
 H   71.543132   37.404775   23.586123
 H   67.791299   36.981743   20.839269
 H   68.591123   35.469691   20.344785
 H   66.820951   35.565494   20.356645
