62 
5oci_ligand_aiqm1.xyz
 C   66.924907   33.876236   23.984380
 C   65.710926   33.366990   24.561209
 C   65.685202   32.837074   25.838410
 O   64.549157   33.394542   23.886186
 C   68.120237   33.192867   25.946498
 C   66.905021   32.760063   26.511993
 C   69.115440   32.883527   26.934078
 C   70.598326   33.093136   26.856840
 C   71.110665   32.948881   25.440175
 C   71.717007   34.024440   24.792778
 C   71.909121   32.710878   22.774527
 C   70.918557   31.756757   24.739556
 C   71.069487   30.332592   22.662026
 C   68.577809   37.653039   24.979205
 C   67.856455   36.869204   24.082131
 C   69.892947   36.304354   22.938524
 N   70.738762   38.601737   25.724457
 C   69.994776   39.387253   26.701212
 C   70.937869   40.363877   27.384867
 C   72.743637   38.946899   27.064910
 C   71.861005   37.921931   26.373948
 C   68.126160   33.759691   24.669815
 C   66.845965   34.433103   22.609735
 O   65.946792   34.080808   21.836474
 N   67.223260   32.265022   27.733381
 N   68.556886   32.328398   27.990816
 C   71.307684   31.621666   23.404996
 C   72.120095   33.902882   23.463402
 C   68.513654   36.167879   23.073567
 C   69.968675   37.785387   24.864030
 C   70.605685   37.110267   23.814068
 N   67.795528   35.317380   22.184433
 C   67.760211   35.688726   20.771047
 O   72.008132   39.688878   28.018750
 H   64.754266   32.473914   26.251171
 H   64.776946   33.603566   22.956003
 H   71.072943   32.370080   27.521855
 H   70.845254   34.088830   27.238740
 H   71.851329   34.958778   25.329966
 H   72.213368   32.629701   21.738078
 H   70.434191   30.924431   25.239413
 H   71.628950   29.511772   23.114261
 H   70.013702   30.059904   22.687194
 H   71.376813   30.423267   21.619829
 H   68.044573   38.160946   25.768899
 H   66.783459   36.769800   24.194780
 H   70.403501   35.768402   22.147289
 H   69.217404   39.956537   26.190050
 H   69.518937   38.746229   27.456566
 H   71.332175   41.075931   26.648938
 H   70.411334   40.913136   28.164496
 H   73.545537   38.447934   27.607909
 H   73.180528   39.626692   26.322873
 H   71.505306   37.188881   27.113818
 H   72.451445   37.390658   25.625775
 H   69.054951   34.089921   24.220048
 H   66.621098   31.858452   28.423198
 H   72.580310   34.742417   22.953472
 H   71.675476   37.221013   23.694094
 H   68.716488   36.131433   20.498389
 H   67.578020   34.796981   20.177098
 H   66.957653   36.403028   20.572369
