49 
5ogb_ligand_aiqm1.xyz
 C    2.674725   -1.304064    0.822972
 C    3.132947   -5.213475    4.892860
 C    1.433561   -0.725376    0.568561
 C    0.388722   -0.970171    1.467249
 C   -1.801719   -2.686657    2.785230
 C   -0.650798   -1.970152    3.519704
 C   -0.245066   -2.806536    4.700909
 C    0.957622   -3.370648    4.837239
 C   -1.162039   -0.612606    4.039831
 C    3.266892   -3.891896    4.142485
 C    4.234292   -2.959315    4.873248
 N    1.978848   -3.242369    3.905790
 C    2.853925   -2.116928    1.935158
 C    0.539982   -1.779382    2.586943
 C    1.797079   -2.385251    2.819834
 C    1.233433    0.104074   -0.575275
 C    1.062962    0.811165   -1.551239
 C    0.860336    1.639427   -2.694416
 C    1.914076    1.879174   -3.588104
 C    1.719896    2.693978   -4.696767
 C    0.472465    3.275623   -4.935102
 C   -0.583469    3.018974   -4.057368
 C   -0.394649    2.215462   -2.943501
 C    0.193716    4.153052   -6.113315
 O   -0.909974    4.366440   -6.533783
 O    1.266015    4.732532   -6.707399
 H    3.504429   -1.117781    0.153868
 H    4.082299   -5.746500    4.833081
 H    2.915121   -5.060666    5.951966
 H    2.354886   -5.842840    4.459323
 H   -0.572999   -0.510074    1.274365
 H   -1.459023   -3.647837    2.396161
 H   -2.624962   -2.866831    3.483069
 H   -2.189158   -2.091872    1.952750
 H   -0.981174   -2.961103    5.476396
 H    1.203996   -3.976239    5.696860
 H   -1.978070   -0.779241    4.749381
 H   -0.359456   -0.078952    4.553149
 H   -1.543556    0.022269    3.235801
 H    3.670501   -4.134460    3.158479
 H    4.344498   -2.007197    4.353712
 H    3.856370   -2.752388    5.878140
 H    5.219247   -3.421239    4.963219
 H    3.835975   -2.528100    2.102950
 H    2.877062    1.420607   -3.410465
 H    2.542825    2.831766   -5.390177
 H   -1.548049    3.458574   -4.271922
 H   -1.211298    2.019838   -2.262232
 H    2.056154    4.557989   -6.188617
