49 
5ogb_ligand_ani-2x.xyz
 C    2.643642   -1.446122    0.756015
 C    3.049396   -5.266695    4.955534
 C    1.429330   -0.783898    0.532681
 C    0.419174   -0.955672    1.477721
 C   -1.838739   -2.470926    2.890746
 C   -0.606562   -1.839381    3.580699
 C   -0.238425   -2.702333    4.744223
 C    0.920764   -3.358554    4.840064
 C   -0.979754   -0.440998    4.125207
 C    3.211850   -3.985388    4.137012
 C    4.271405   -3.072558    4.770237
 N    1.936838   -3.288829    3.908875
 C    2.815269   -2.246670    1.865786
 C    0.565398   -1.751242    2.610648
 C    1.781045   -2.437345    2.807761
 C    1.234065    0.045822   -0.621099
 C    1.071838    0.745837   -1.596459
 C    0.875456    1.576931   -2.753408
 C    1.953752    2.272128   -3.322879
 C    1.758296    3.083353   -4.430049
 C    0.485996    3.212666   -4.991085
 C   -0.582036    2.497883   -4.448525
 C   -0.396419    1.696430   -3.334173
 C    0.214942    4.053123   -6.200305
 O   -0.704143    3.851988   -6.950396
 O    1.063265    5.080806   -6.430202
 H    3.457301   -1.332252    0.045675
 H    3.962123   -5.865178    4.876356
 H    2.896016   -5.054085    6.019636
 H    2.213002   -5.871377    4.590726
 H   -0.519921   -0.437659    1.309942
 H   -1.595788   -3.470671    2.516085
 H   -2.661084   -2.561315    3.608674
 H   -2.186877   -1.862473    2.049855
 H   -0.978844   -2.821213    5.532359
 H    1.113831   -4.013202    5.681055
 H   -1.787816   -0.533780    4.858609
 H   -0.116698    0.019507    4.617529
 H   -1.321292    0.228778    3.329766
 H    3.562699   -4.296416    3.148269
 H    4.464819   -2.181017    4.165245
 H    3.955656   -2.745817    5.767474
 H    5.211479   -3.624424    4.873537
 H    3.783995   -2.716434    1.996073
 H    2.943863    2.179946   -2.886362
 H    2.619479    3.582830   -4.872289
 H   -1.555927    2.584373   -4.920762
 H   -1.234763    1.153180   -2.909319
 H    1.648508    5.211145   -5.671758
