13 
5oh2_ligand_aiqm1.xyz
 O   21.492312   16.060050   -7.325370
 C   22.464642   16.773581   -7.452911
 C   22.714293   18.117865   -6.782015
 C   24.200979   18.388287   -7.041394
 C   24.480903   17.627459   -8.344517
 N   23.551217   16.516092   -8.240878
 H   22.436676   18.074490   -5.731577
 H   22.071745   18.857486   -7.265949
 H   24.805941   17.967157   -6.238578
 H   24.436506   19.446667   -7.127906
 H   25.508551   17.275308   -8.410987
 H   24.268497   18.248499   -9.221523
 H   23.510639   15.764160   -8.906595
