13 
5oh2_ligand_ani-2x.xyz
 O   21.472782   16.071149   -7.348949
 C   22.456220   16.773894   -7.460966
 C   22.717012   18.110865   -6.772663
 C   24.196192   18.401644   -7.049975
 C   24.488414   17.617052   -8.342136
 N   23.545234   16.516365   -8.249216
 H   22.462356   18.048139   -5.711802
 H   22.049646   18.854301   -7.224293
 H   24.816196   18.009505   -6.237429
 H   24.413185   19.468264   -7.151132
 H   25.516833   17.247056   -8.388643
 H   24.304661   18.235467   -9.233292
 H   23.504169   15.763398   -8.919707
