21 
5oh3_ligand_ani-2x.xyz
 O    0.361122    0.716936   -2.176458
 C   -0.348966    0.630925   -1.202531
 N   -1.479233    1.400656   -0.971944
 C   -0.164057   -0.310393   -0.002917
 C    0.948422    0.260875    0.906936
 C    2.350737    0.256913    0.303887
 C    0.173487   -1.714120   -0.499438
 C   -1.529651   -0.220826    0.704072
 C   -2.222532    1.006550    0.133000
 O   -3.235030    1.537804    0.518335
 H   -1.772301    2.142249   -1.594261
 H    0.952155   -0.323683    1.837869
 H    0.660862    1.282381    1.187659
 H    3.048700    0.776581    0.967702
 H    2.724025   -0.764379    0.170492
 H    2.367393    0.754661   -0.670290
 H    1.042373   -1.687651   -1.164016
 H    0.392289   -2.385406    0.339909
 H   -0.661702   -2.138156   -1.066613
 H   -1.452284   -0.130371    1.788201
 H   -2.155607   -1.091447    0.490206
