15 
5oh4_ligand_ani-2x.xyz
 O   21.281491   15.893560   -7.403626
 C   22.330396   16.499536   -7.429726
 N   23.379193   16.074943   -8.238753
 C   22.616658   17.725163   -6.586598
 C   23.680400   18.631804   -7.201137
 C   24.940147   17.830696   -7.521203
 C   24.658681   16.605486   -8.366517
 O   25.477385   16.084632   -9.092122
 H   23.194029   15.245905   -8.792769
 H   22.945277   17.364884   -5.603066
 H   21.667487   18.244193   -6.433888
 H   23.919238   19.450596   -6.514933
 H   23.290388   19.088135   -8.119135
 H   25.411784   17.476656   -6.595267
 H   25.687245   18.426811   -8.050458
