15 
5oh4_ligand_xtb.xyz
 O   21.292204   15.914013   -7.425647
 C   22.339628   16.508602   -7.426059
 N   23.381773   16.089084   -8.229129
 C   22.633391   17.719067   -6.574719
 C   23.671049   18.623949   -7.226300
 C   24.937019   17.823103   -7.502180
 C   24.652901   16.613303   -8.357700
 O   25.451099   16.102492   -9.101062
 H   23.186990   15.274053   -8.804538
 H   23.002403   17.356794   -5.610246
 H   21.694374   18.242507   -6.391641
 H   23.896638   19.466620   -6.571394
 H   23.275860   19.022703   -8.163144
 H   25.367107   17.463393   -6.562379
 H   25.697364   18.423316   -8.003061
