20 
5oku_ligand_ani-2x.xyz
 O   53.793555  355.931942   84.911206
 C   53.960330  356.869357   83.947431
 O   53.422359  356.739287   82.881908
 C   54.829071  358.060858   84.321345
 C   56.183007  357.711755   84.943206
 C   57.041886  358.954825   85.167142
 C   58.395904  358.605793   85.788901
 C   59.264664  359.797422   86.162432
 O   59.432357  360.733801   85.197788
 O   59.801940  359.928472   87.228167
 H   54.282258  356.185382   85.705710
 H   54.256730  358.697142   85.013011
 H   54.971100  358.634508   83.403334
 H   56.713644  357.007526   84.289982
 H   56.048305  357.198572   85.907243
 H   56.511288  359.659059   85.820387
 H   57.176487  359.468074   84.203119
 H   58.968137  357.969403   85.097197
 H   58.253985  358.032248   86.707012
 H   58.943794  360.479873   84.403377
