20 
5oku_ligand_aiqm1.xyz
 O   54.113082  355.731865   84.555699
 C   53.851113  356.947769   84.023684
 O   52.920121  357.092682   83.283631
 C   54.752708  358.098602   84.429976
 C   56.119923  357.749569   85.001759
 C   56.970812  358.990697   85.234365
 C   58.348278  358.651600   85.809611
 C   59.133749  359.913703   86.086459
 O   59.885478  360.383778   85.060044
 O   59.084234  360.517042   87.120072
 H   54.895572  355.772119   85.114182
 H   54.183608  358.690261   85.153542
 H   54.856252  358.726157   83.545711
 H   56.647621  357.068279   84.323983
 H   56.006717  357.218769   85.953890
 H   56.452095  359.664522   85.920329
 H   57.088243  359.534326   84.290614
 H   58.893480  357.994415   85.126183
 H   58.225452  358.131496   86.757769
 H   59.822262  359.787649   84.308399
