27 
5ops_ligand_ani-2x.xyz
 C    4.166730   -7.791818   17.492043
 C    4.211176   -6.636984   18.264386
 C    4.633542   -5.430958   17.704985
 C    4.988244   -5.394690   16.355833
 C    4.917979   -6.550903   15.582127
 C    4.511724   -7.757236   16.148273
 C    4.626931   -4.199734   18.539841
 C    3.473545   -3.882227   19.258285
 C    3.393137   -2.709600   20.009129
 N    4.389291   -1.827353   20.130050
 C    5.704434   -3.308738   18.656898
 C    5.488243   -2.158723   19.467161
 N    6.646244   -1.416005   19.466811
 C    7.590223   -2.046279   18.719445
 C    7.074912   -3.208979   18.205819
 C    7.862630   -4.091996   17.406173
 N    8.520684   -4.785261   16.749374
 O    5.241449   -6.561463   14.258002
 H    3.844831   -8.728273   17.939960
 H    3.931195   -6.668391   19.314151
 H    5.313411   -4.457395   15.906759
 H    4.473712   -8.646303   15.526031
 H    2.612634   -4.542757   19.208734
 H    2.477430   -2.474098   20.546950
 H    6.754616   -0.549525   19.968867
 H    8.586054   -1.637528   18.591197
 H    5.522999   -5.674784   13.998716
