27 
5ops_ligand_aiqm1.xyz
 C    4.202569   -7.781635   17.500613
 C    4.208988   -6.620213   18.269163
 C    4.609744   -5.406641   17.700986
 C    4.977125   -5.375412   16.354048
 C    4.966942   -6.541652   15.594989
 C    4.578768   -7.754160   16.163454
 C    4.585274   -4.175193   18.527771
 C    3.441601   -3.838489   19.249857
 C    3.393958   -2.677981   20.039976
 N    4.404595   -1.822844   20.181112
 C    5.669036   -3.295624   18.665558
 C    5.494242   -2.169548   19.495994
 N    6.668183   -1.460047   19.499137
 C    7.586638   -2.094454   18.713979
 C    7.027391   -3.228672   18.176212
 C    7.715966   -4.114184   17.303309
 N    8.267031   -4.826826   16.569736
 O    5.312279   -6.549602   14.274656
 H    3.903392   -8.719234   17.950664
 H    3.920524   -6.653118   19.311376
 H    5.276384   -4.443689   15.885506
 H    4.583428   -8.647964   15.555239
 H    2.570519   -4.477380   19.197284
 H    2.486980   -2.440110   20.580921
 H    6.815169   -0.614598   20.019520
 H    8.579893   -1.702373   18.586440
 H    5.711381   -5.706359   14.048500
