31 
5opu_ligand_dft.xyz
 C    5.878470   -5.971906   13.861524
 C    5.272083   -6.155632   15.228432
 C    5.129864   -5.056918   16.076573
 C    4.877269   -7.408613   15.695623
 C    4.361815   -7.560058   16.980818
 C    4.243864   -6.461433   17.821462
 C    4.636929   -5.195789   17.373177
 C    4.529225   -4.017257   18.265165
 C    5.584250   -3.095051   18.444373
 C    3.368696   -3.776289   18.979638
 C    3.250900   -2.647331   19.829060
 N    2.095894   -2.448879   20.556270
 N    4.224388   -1.757185   20.001683
 C    5.336411   -2.022092   19.318894
 N    6.472804   -1.251253   19.381176
 C    7.441487   -1.799545   18.590612
 C    6.950464   -2.935637   17.992156
 C    7.722938   -3.746496   17.116505
 N    8.374564   -4.380967   16.395251
 H    5.349856   -5.199782   13.291821
 H    6.923361   -5.655208   13.955586
 H    5.852448   -6.899036   13.281626
 H    5.416613   -4.072353   15.716814
 H    4.982029   -8.277412   15.050715
 H    4.064928   -8.543889   17.332126
 H    3.873461   -6.581888   18.835508
 H    2.525620   -4.452159   18.873925
 H    1.998153   -1.517415   20.933726
 H    1.245246   -2.838529   20.179993
 H    6.561424   -0.425551   19.951214
 H    8.420546   -1.353446   18.501554
