31 
5opu_ligand_ani-2x.xyz
 C    5.845443   -5.978928   13.844008
 C    5.260567   -6.162124   15.221677
 C    5.091321   -5.056058   16.054452
 C    4.892945   -7.417160   15.700432
 C    4.384978   -7.563191   16.990111
 C    4.250699   -6.457059   17.816422
 C    4.634206   -5.192606   17.363315
 C    4.542463   -4.010377   18.264207
 C    5.600653   -3.098976   18.446256
 C    3.374190   -3.774636   18.970513
 C    3.246682   -2.645625   19.813108
 N    2.090488   -2.437143   20.525648
 N    4.227625   -1.759230   20.006448
 C    5.342385   -2.020941   19.333974
 N    6.477873   -1.254518   19.406024
 C    7.451116   -1.799550   18.623619
 C    6.971449   -2.932402   18.015425
 C    7.777863   -3.735284   17.150574
 N    8.440226   -4.372361   16.442789
 H    5.285497   -5.225848   13.278092
 H    6.885987   -5.634080   13.900930
 H    5.831771   -6.911988   13.272669
 H    5.331506   -4.065611   15.674563
 H    5.002215   -8.290051   15.059648
 H    4.093303   -8.546930   17.349456
 H    3.869646   -6.575792   18.828500
 H    2.535768   -4.458016   18.866976
 H    1.995140   -1.512606   20.918936
 H    1.240209   -2.834624   20.157568
 H    6.556132   -0.426861   19.975093
 H    8.435654   -1.354420   18.541566
