31 
5opu_ligand_xtb.xyz
 C    5.881712   -5.932084   13.882594
 C    5.293244   -6.127284   15.244755
 C    5.133327   -5.035933   16.087213
 C    4.929223   -7.384757   15.706142
 C    4.413096   -7.546108   16.981043
 C    4.265773   -6.456167   17.816727
 C    4.637781   -5.189193   17.375653
 C    4.515099   -4.024976   18.261965
 C    5.565636   -3.108351   18.439108
 C    3.356135   -3.769689   18.968958
 C    3.242258   -2.635102   19.798935
 N    2.108251   -2.427769   20.532438
 N    4.218744   -1.747614   19.960490
 C    5.337479   -2.012482   19.298829
 N    6.472112   -1.257893   19.343500
 C    7.424926   -1.835824   18.561807
 C    6.920829   -2.977853   17.983278
 C    7.639075   -3.833462   17.139818
 N    8.257670   -4.515582   16.453114
 H    5.349651   -5.151728   13.340656
 H    6.921017   -5.620331   13.982757
 H    5.846369   -6.851216   13.303361
 H    5.390802   -4.049604   15.728526
 H    5.052259   -8.245771   15.064829
 H    4.132031   -8.530373   17.327102
 H    3.887117   -6.582879   18.820656
 H    2.510163   -4.433685   18.874669
 H    2.021117   -1.519077   20.955248
 H    1.259474   -2.873417   20.230786
 H    6.579687   -0.419697   19.889158
 H    8.403944   -1.409103   18.458885
