31 
5opu_ligand_aiqm1.xyz
 C    5.763694   -5.963899   13.799869
 C    5.249046   -6.141321   15.203235
 C    5.093900   -5.034531   16.040981
 C    4.938923   -7.406698   15.706573
 C    4.485285   -7.559164   17.015310
 C    4.345642   -6.449935   17.842545
 C    4.669721   -5.176235   17.362291
 C    4.543236   -4.000236   18.255742
 C    5.594788   -3.093290   18.481027
 C    3.362728   -3.746735   18.933528
 C    3.234823   -2.621667   19.787881
 N    2.067241   -2.429442   20.504098
 N    4.204378   -1.737582   19.993203
 C    5.340957   -2.016663   19.345295
 N    6.481856   -1.266644   19.432896
 C    7.465330   -1.839496   18.670560
 C    6.970517   -2.968102   18.063183
 C    7.729782   -3.811230   17.204993
 N    8.339258   -4.497412   16.492112
 H    5.163436   -5.237575   13.248781
 H    6.790948   -5.593286   13.813374
 H    5.750475   -6.909806   13.258065
 H    5.320442   -4.046676   15.653814
 H    5.058835   -8.278070   15.073010
 H    4.246504   -8.544894   17.393745
 H    4.006642   -6.565385   18.864788
 H    2.523739   -4.421247   18.823512
 H    1.963121   -1.487806   20.848461
 H    1.232816   -2.804034   20.084301
 H    6.579267   -0.446397   20.003128
 H    8.448668   -1.409541   18.612702
