41 
5opv_ligand_aiqm1.xyz
 N  -18.532420   -2.317649   19.856781
 C  -19.374404   -4.366323   18.862472
 C  -19.501908   -3.213681   19.674529
 N  -16.266740   -1.829830   19.255540
 C  -18.192483   -4.614735   18.184969
 N  -14.451991   -5.117798   16.344382
 C  -15.291937   -2.409615   18.485764
 N  -20.647808   -2.901454   20.382188
 C  -15.785031   -3.559223   17.918187
 N  -23.535778   -4.779841   19.987102
 C  -17.149776   -3.690099   18.367453
 N  -22.226151   -4.575743   19.705783
 C  -17.401735   -2.594763   19.204816
 C  -15.041544   -4.416112   17.059338
 C  -18.023320   -5.805750   17.313141
 C  -18.173547   -7.094127   17.837111
 C  -17.966488   -8.202339   17.022496
 C  -17.611859   -8.035663   15.685529
 C  -17.474318   -6.757141   15.140195
 C  -17.699972   -5.653010   15.964845
 C  -21.907507   -3.473517   20.381471
 C  -23.007892   -2.965228   21.104136
 C  -24.031218   -3.846849   20.815448
 C  -24.207837   -5.926526   19.417907
 C  -17.063630   -6.560916   13.705121
 H  -20.211284   -5.039991   18.768951
 H  -16.172112   -0.986367   19.790596
 H  -14.316723   -1.966974   18.395054
 H  -20.557127   -2.043994   20.899838
 H  -18.436790   -7.220808   18.879588
 H  -18.073069   -9.198346   17.433997
 H  -17.433210   -8.904591   15.062200
 H  -17.606194   -4.655647   15.547584
 H  -23.048016   -2.094442   21.735438
 H  -25.059746   -3.873663   21.132884
 H  -24.147337   -5.887472   18.332699
 H  -23.738503   -6.843998   19.767541
 H  -25.249612   -5.902627   19.730655
 H  -17.750177   -5.889490   13.186302
 H  -16.068173   -6.114118   13.651502
 H  -17.037632   -7.512541   13.173467
