41 
5opv_ligand_xtb.xyz
 N  -18.527105   -2.245888   19.778328
 C  -19.420183   -4.262571   18.793745
 C  -19.521574   -3.117410   19.604114
 N  -16.254264   -1.807416   19.196963
 C  -18.250439   -4.547594   18.114654
 N  -14.459674   -5.145202   16.410542
 C  -15.297474   -2.418532   18.446196
 N  -20.664437   -2.795489   20.284362
 C  -15.813906   -3.558540   17.873957
 N  -23.393388   -4.916988   20.087397
 C  -17.182271   -3.652424   18.298949
 N  -22.133663   -4.613736   19.753164
 C  -17.404582   -2.538546   19.137709
 C  -15.089174   -4.441930   17.065443
 C  -18.140084   -5.728574   17.249980
 C  -18.586365   -6.970949   17.693284
 C  -18.450369   -8.080172   16.881766
 C  -17.872058   -7.963672   15.628507
 C  -17.436403   -6.730749   15.163637
 C  -17.586010   -5.618993   15.981165
 C  -21.859798   -3.466181   20.360330
 C  -22.975839   -3.023726   21.105011
 C  -23.931833   -3.988020   20.897335
 C  -24.000615   -6.116111   19.590652
 C  -16.784607   -6.582548   13.824370
 H  -20.284442   -4.897156   18.700660
 H  -16.140297   -0.962350   19.730434
 H  -14.306859   -2.015461   18.359804
 H  -20.600658   -1.941306   20.819538
 H  -19.016429   -7.061633   18.679894
 H  -18.788821   -9.045812   17.229488
 H  -17.757818   -8.840394   15.006917
 H  -17.274849   -4.650772   15.616049
 H  -23.051849   -2.134708   21.695958
 H  -24.935451   -4.072822   21.262662
 H  -23.282295   -6.602675   18.934389
 H  -24.254766   -6.790924   20.411116
 H  -24.906899   -5.885135   19.027260
 H  -17.277301   -5.806829   13.240012
 H  -15.744754   -6.287531   13.962033
 H  -16.813397   -7.515530   13.267230
