41 
5opv_ligand_ani-2x.xyz
 N  -18.516800   -2.294826   19.829722
 C  -19.362655   -4.332792   18.842399
 C  -19.495479   -3.190376   19.654461
 N  -16.269358   -1.779711   19.233607
 C  -18.188177   -4.562107   18.137838
 N  -14.268045   -4.945560   16.349656
 C  -15.289856   -2.334907   18.466047
 N  -20.640872   -2.874465   20.365870
 C  -15.760299   -3.481404   17.877060
 N  -23.463800   -4.858319   20.039823
 C  -17.133001   -3.648066   18.302324
 N  -22.172241   -4.606418   19.738980
 C  -17.399712   -2.554056   19.171357
 C  -14.940974   -4.296983   17.036806
 C  -18.096578   -5.759638   17.260923
 C  -18.517330   -7.003650   17.736035
 C  -18.386831   -8.133618   16.942252
 C  -17.848011   -8.029458   15.660880
 C  -17.446573   -6.794079   15.158309
 C  -17.610263   -5.663825   15.959004
 C  -21.882734   -3.491050   20.395138
 C  -22.995730   -3.014673   21.130087
 C  -23.985383   -3.930835   20.866413
 C  -24.106778   -6.023830   19.480296
 C  -16.832477   -6.657515   13.787890
 H  -20.202607   -5.009534   18.754889
 H  -16.197278   -0.941146   19.787137
 H  -14.307305   -1.886247   18.380939
 H  -20.541223   -2.021431   20.896638
 H  -18.928143   -7.080242   18.740820
 H  -18.706726   -9.101973   17.319054
 H  -17.742144   -8.920286   15.044699
 H  -17.346560   -4.687303   15.559523
 H  -23.045963   -2.132358   21.752622
 H  -25.016327   -4.001427   21.196547
 H  -24.085298   -5.972396   18.388164
 H  -23.591587   -6.930175   19.810764
 H  -25.144404   -6.052200   19.821619
 H  -17.366126   -5.907489   13.193206
 H  -15.786258   -6.332514   13.855640
 H  -16.855092   -7.604116   13.239564
