29 
5ox5_ligand_aiqm1.xyz
 C   92.042762  -69.956603    0.273041
 C   93.367382  -69.618633    0.168264
 O   94.259753  -70.431061   -0.388937
 N   93.860200  -68.421839    0.630147
 C   93.048723  -67.453375    1.244148
 N   91.726141  -67.786744    1.350528
 C   91.148042  -68.989406    0.902702
 N   90.217607  -71.506582   -0.089891
 C   89.666691  -72.743589   -0.558959
 C   88.178970  -72.771813   -0.278676
 O   87.579120  -71.886088    0.253219
 O   87.546695  -73.898238   -0.679925
 C   91.538159  -71.274785   -0.243053
 C   95.278117  -68.113398    0.493233
 C   90.823455  -66.817539    1.982909
 O   93.519307  -66.406888    1.640330
 O   89.948233  -69.133781    1.073028
 O   92.262775  -72.105604   -0.774717
 H   95.128003  -70.019360   -0.368329
 H   89.608220  -70.827682    0.347971
 H   90.143310  -73.601442   -0.068544
 H   89.834048  -72.869286   -1.635879
 H   88.178471  -74.498567   -1.084685
 H   95.424422  -67.130689    0.923798
 H   95.888264  -68.836293    1.038261
 H   95.571761  -68.089845   -0.558012
 H   90.044727  -66.537055    1.278710
 H   90.356603  -67.273152    2.852071
 H   91.412738  -65.953463    2.270348
