31 
5oxk_ligand_xtb.xyz
 N    1.021175   -1.187674   -2.261726
 C    1.762733   -0.630279   -1.099842
 C    0.761871    0.411087   -0.543781
 O    0.062621    1.012544   -1.336724
 C    3.056324    0.032557   -1.543319
 N    0.722555    0.524523    0.779692
 C   -0.244571    1.349745    1.476729
 C   -0.044165    1.255252    2.989675
 O   -0.831781    1.678493    3.781418
 C   -1.703401    0.998592    1.127034
 C   -1.985184   -0.517349    1.133346
 C   -1.850341   -1.101938   -0.254300
 O   -0.871163   -1.757447   -0.610922
 N   -2.856868   -0.827216   -1.083373
 O    1.103333    0.659497    3.327794
 H    0.162272   -1.661805   -1.833436
 H    0.671282   -0.364833   -2.784485
 H    1.576151   -1.807829   -2.853002
 H    1.943829   -1.429440   -0.379391
 H    3.576318    0.448608   -0.685268
 H    2.850098    0.843878   -2.238069
 H    3.718395   -0.686200   -2.020441
 H    1.355803   -0.001886    1.363537
 H   -0.084739    2.404368    1.208973
 H   -2.323589    1.491001    1.876624
 H   -1.941418    1.418747    0.150018
 H   -3.001461   -0.692122    1.486195
 H   -1.299379   -1.033082    1.805446
 H   -2.858491   -1.176470   -2.029131
 H   -3.661905   -0.307114   -0.777556
 H    1.213198    0.653995    4.293483
