31 
5oxk_ligand_aiqm1.xyz
 N    0.996438   -0.533874   -2.578322
 C    1.738371   -0.548002   -1.262290
 C    1.117286    0.642266   -0.514873
 O    0.939313    1.675177   -1.142234
 C    3.225385   -0.359443   -1.488029
 N    0.780274    0.436794    0.756703
 C   -0.110178    1.386436    1.420400
 C   -0.242616    1.074642    2.896658
 O   -0.790519    1.799797    3.676425
 C   -1.511739    1.446629    0.774410
 C   -2.337624    0.166653    0.857620
 C   -1.962561   -0.939761   -0.102368
 O   -1.250203   -0.777972   -1.094682
 N   -2.464352   -2.147663    0.198849
 O    0.280282   -0.125115    3.229064
 H    0.012995   -0.743766   -2.370816
 H    1.048912    0.431387   -2.918191
 H    1.379531   -1.177635   -3.262192
 H    1.536710   -1.489146   -0.765193
 H    3.736232   -0.367523   -0.529047
 H    3.432264    0.597654   -1.963163
 H    3.644390   -1.160427   -2.093659
 H    0.962700   -0.447723    1.199146
 H    0.320421    2.381942    1.334199
 H   -2.049189    2.237007    1.291233
 H   -1.392876    1.746403   -0.263083
 H   -3.375800    0.409639    0.627178
 H   -2.337765   -0.235745    1.872375
 H   -2.368694   -2.901501   -0.459719
 H   -3.114142   -2.256496    0.957332
 H    0.156254   -0.220433    4.181472
