33 
5oxl_ligand_aiqm1.xyz
 N    2.959909   -2.160992   -0.098662
 C    2.418737   -1.046962    0.752576
 C    1.167328   -0.579875   -0.032529
 O    0.976489   -1.111224   -1.126999
 C    3.456210    0.051417    0.902456
 N    0.422810    0.333882    0.545746
 C   -0.750504    0.954827   -0.089658
 C   -0.676148    2.425734    0.267289
 O    0.042561    2.851120    1.137980
 C   -2.068964    0.344304    0.401901
 C   -2.246323   -1.131372    0.038317
 C   -2.396964   -1.331706   -1.467967
 C   -3.462346   -1.695315    0.766823
 O   -1.501247    3.160662   -0.470382
 H    2.893390   -3.075322    0.336104
 H    2.302385   -2.094055   -0.927652
 H    3.925749   -2.009544   -0.375322
 H    2.117763   -1.430682    1.719820
 H    3.755204    0.443046   -0.068998
 H    3.060596    0.877704    1.484779
 H    4.338012   -0.315345    1.422304
 H    0.725436    0.793162    1.393840
 H   -0.660414    0.835062   -1.166329
 H   -2.125073    0.465171    1.489350
 H   -2.886674    0.920384   -0.032411
 H   -1.353013   -1.673914    0.380489
 H   -3.263446   -0.778485   -1.835439
 H   -2.560548   -2.385433   -1.690332
 H   -1.517582   -1.009168   -2.027145
 H   -3.375548   -1.576779    1.847529
 H   -3.584877   -2.754409    0.547773
 H   -4.366925   -1.180321    0.439931
 H   -1.434440    4.073873   -0.158778
