33 
5oxl_ligand_dft.xyz
 N    3.577509   -1.533459   -0.447915
 C    2.618384   -0.982830    0.574002
 C    1.418600   -0.534001   -0.288132
 O    1.602682   -0.405814   -1.496042
 C    3.244954    0.207835    1.295420
 N    0.272102   -0.289753    0.350728
 C   -0.752539    0.548614   -0.256317
 C   -0.286457    2.002652   -0.151206
 O    0.741946    2.347482    0.381657
 C   -2.118634    0.322026    0.400051
 C   -2.618980   -1.129553    0.341149
 C   -2.672562   -1.664853   -1.091968
 C   -3.993293   -1.218726    1.010026
 O   -1.156675    2.832531   -0.720987
 H    3.539282   -2.552288   -0.529227
 H    3.217829   -1.118353   -1.348919
 H    4.546951   -1.255429   -0.279427
 H    2.354629   -1.784472    1.267159
 H    3.527854    0.987046    0.581696
 H    2.517654    0.655064    1.975632
 H    4.116219   -0.101236    1.880441
 H    0.272436   -0.327417    1.362134
 H   -0.800989    0.295622   -1.318623
 H   -2.076115    0.657056    1.446170
 H   -2.834483    0.979003   -0.105186
 H   -1.923292   -1.758473    0.915196
 H   -3.286502   -1.016163   -1.728470
 H   -3.119816   -2.663243   -1.110104
 H   -1.678970   -1.746137   -1.547121
 H   -3.966844   -0.839114    2.037227
 H   -4.343571   -2.254805    1.042782
 H   -4.734214   -0.632905    0.453707
 H   -0.815786    3.738151   -0.629941
