34 
5oxn_ligand_aiqm1.xyz
 N    0.694491    1.464125   -1.478894
 C    0.066990    0.202264   -0.958142
 C   -1.405849    0.576533   -0.734904
 O   -1.699296    1.766065   -0.783029
 C    0.743166   -0.187844    0.371295
 C    2.243531   -0.226689    0.223620
 C    3.041747    0.718591    0.873654
 C    2.857391   -1.183233   -0.593626
 C    4.426517    0.715234    0.701853
 C    4.238755   -1.186347   -0.763271
 C    5.025014   -0.231928   -0.122861
 N   -2.252529   -0.416971   -0.491946
 C   -3.554673   -0.131098    0.119594
 C   -3.315864    0.323471    1.552078
 O   -4.442762    0.707575    2.145039
 C   -4.435239   -1.367632    0.052360
 O   -2.224452    0.336294    2.062975
 H   -0.035550    2.178427   -1.254522
 H    1.590578    1.644946   -1.020633
 H    0.851710    1.441131   -2.482192
 H    0.168490   -0.594364   -1.688954
 H    0.459662    0.526114    1.145608
 H    0.354751   -1.159291    0.675683
 H    2.585725    1.435203    1.547624
 H    2.257122   -1.942695   -1.082957
 H    5.028275    1.444566    1.222961
 H    4.696446   -1.941056   -1.384979
 H    6.096160   -0.239182   -0.251476
 H   -1.877820   -1.339287   -0.331858
 H   -4.008324    0.695403   -0.421786
 H   -4.215874    0.988141    3.042509
 H   -4.590002   -1.656401   -0.984769
 H   -3.968768   -2.196879    0.586623
 H   -5.399721   -1.163486    0.507124
