34 
5oxn_ligand_ani-2x.xyz
 N    0.710019    1.331188   -1.602583
 C    0.062144    0.072037   -1.113556
 C   -1.403845    0.470260   -0.866691
 O   -1.748210    1.628834   -1.053394
 C    0.725765   -0.467818    0.174210
 C    2.228728   -0.328717    0.148042
 C    2.889649    0.541837    1.016706
 C    2.983487   -1.053382   -0.777298
 C    4.275639    0.680308    0.968285
 C    4.367485   -0.922244   -0.825036
 C    5.017233   -0.053655    0.047622
 N   -2.266582   -0.493507   -0.432445
 C   -3.503846   -0.086918    0.197252
 C   -3.209916    0.426240    1.606474
 O   -4.317623    0.879804    2.218022
 C   -4.528545   -1.219246    0.199651
 O   -2.121568    0.434822    2.129263
 H   -0.061752    2.033500   -1.516369
 H    1.506655    1.576193   -0.998144
 H    1.020889    1.260052   -2.583767
 H    0.111378   -0.683961   -1.898696
 H    0.314375    0.052344    1.046631
 H    0.464020   -1.527055    0.283513
 H    2.309661    1.119328    1.735526
 H    2.475693   -1.720168   -1.472775
 H    4.773524    1.367049    1.648405
 H    4.940866   -1.497275   -1.548346
 H    6.098801    0.052080    0.009363
 H   -1.836245   -1.327079   -0.053404
 H   -3.891329    0.762414   -0.373891
 H   -4.037587    1.194684    3.093823
 H   -4.702943   -1.552521   -0.826600
 H   -4.172677   -2.071523    0.790519
 H   -5.473544   -0.878207    0.629486
