68 
5q0l_ligand_xtb.xyz
 N   -1.608738   -1.996361    0.796586
 C    1.546090    0.908712    0.520697
 C    0.043206    1.178637    0.263363
 C   -0.583007   -0.429586    2.079119
 C   -1.198379   -1.703487    2.067932
 C   -1.207893   -2.073924   -2.112071
 C   -2.208134    0.153008   -3.407304
 C   -1.889342   -0.981007   -4.142498
 C   -2.082463   -1.000389   -5.638854
 C   -1.897176    2.614237    1.102396
 C    3.036580   -1.899769    1.491022
 C   -0.094395   -0.686078    4.373588
 C   -0.313505    5.017033    0.528636
 C   -1.289644   -0.961078    0.066704
 N   -0.677886    0.041428    0.787497
 O    2.277201    1.677082    1.103946
 N    1.931395   -0.279351    0.021520
 C    3.199625   -0.907105    0.332233
 C    2.199512   -3.110196    1.085235
 C    2.808980   -3.798180   -0.132644
 C    2.927136   -2.823940   -1.301193
 C    3.761167   -1.605834   -0.907080
 C   -0.390638    2.529441    0.858333
 C   -2.255955    3.967284    1.709694
 C   -1.813700    5.102269    0.791437
 C    0.050279    3.662101   -0.070659
 C   -1.277217   -2.462589    3.230646
 C   -0.720732   -1.934671    4.374675
 C   -0.013238    0.086562    3.233056
 C   -1.509171   -0.928178   -1.375360
 C   -2.025502    0.181808   -2.037737
 C   -1.395438   -2.098168   -3.478781
 O   -3.072890   -0.114309   -6.098668
 H   -0.108636    1.193900   -0.822561
 H   -0.838151   -2.944298   -1.591395
 H   -2.605150    1.017412   -3.919562
 H   -2.295250   -2.028454   -5.968695
 H   -1.157080   -0.676496   -6.128631
 H   -2.220379    1.815357    1.773267
 H   -2.431677    2.496916    0.156123
 H    2.570327   -1.389385    2.336567
 H    4.028279   -2.233006    1.802403
 H    0.341376   -0.317186    5.290197
 H    0.228457    5.151432    1.466821
 H   -0.007366    5.814185   -0.151605
 H    1.239503   -0.878403   -0.402227
 H    3.865905   -0.094582    0.641335
 H    1.174527   -2.804364    0.864144
 H    2.149187   -3.809731    1.921567
 H    2.194860   -4.652942   -0.422462
 H    3.802722   -4.171759    0.125128
 H    3.397257   -3.321060   -2.152225
 H    1.929600   -2.511404   -1.621191
 H    3.802811   -0.895830   -1.735489
 H    4.780867   -1.926314   -0.686685
 H    0.127107    2.663199    1.812582
 H   -1.760992    4.070222    2.677873
 H   -3.333709    4.020287    1.878035
 H   -2.059011    6.064509    1.245124
 H   -2.353076    5.033068   -0.156511
 H   -0.440003    3.550459   -1.042244
 H    1.128774    3.602894   -0.223415
 H   -1.752181   -3.430240    3.218647
 H   -0.759542   -2.497781    5.295445
 H    0.489712    1.039928    3.243388
 H   -2.315713    1.058835   -1.479451
 H   -1.158076   -2.991017   -4.039042
 H   -3.911308   -0.343653   -5.682121
