72 
5q19_ligand_aiqm1.xyz
 N    3.632925    0.575529   -0.347068
 C    2.220524   -0.914447    0.999763
 C   -0.928662    1.039356   -1.102182
 C    0.042395    1.035592    0.103780
 C    2.046422    2.021391   -1.134656
 C    3.411481    1.696356   -1.128342
 C    1.883901   -3.042803    2.810122
 C    4.325282    2.474105   -1.849875
 C    0.687981    2.250868    2.245570
 C    1.505804   -2.322640   -1.638119
 C   -2.009508   -1.740308   -3.294216
 C    2.462965    3.879540   -2.549199
 O   -1.419763    2.073655   -1.535244
 N   -1.186206   -0.173424   -1.609844
 C   -2.191223   -0.366812   -2.657399
 C   -3.606675   -0.219599   -2.086309
 C   -3.944104   -1.346958   -1.111634
 C   -3.779939   -2.706200   -1.790152
 C   -2.363625   -2.880902   -2.338100
 C   -0.308164    2.160312    1.089638
 C   -1.720582    1.927427    1.640261
 C   -2.119057    3.022450    2.624994
 C   -1.113773    3.117823    3.769252
 C    0.294919    3.350726    3.229376
 N    1.429302    1.058200   -0.349622
 C    1.537649    3.120709   -1.843904
 C    3.834097    3.561374   -2.552480
 C    2.443467    0.230214    0.094154
 C    2.918216   -0.956168    2.217411
 C    2.755979   -1.991726    3.117517
 O    1.762324   -4.014788    3.749852
 C    0.888876   -5.090078    3.449349
 C    1.214925   -3.052772    1.591454
 C    1.399010   -2.002969    0.695463
 O    0.685457   -2.071811   -0.486096
 H   -0.075465    0.087661    0.631170
 H    5.376893    2.224049   -1.850353
 H    0.702347    1.285194    2.768228
 H    1.697433    2.424529    1.861398
 H    2.196118   -1.498755   -1.822272
 H    2.061454   -3.253036   -1.501779
 H    0.816165   -2.415239   -2.474749
 H   -2.663542   -1.793377   -4.168894
 H   -0.982184   -1.839696   -3.657371
 H    2.120582    4.737873   -3.112524
 H   -0.743209   -0.973274   -1.184652
 H   -2.030356    0.416889   -3.399525
 H   -3.698553    0.757716   -1.611872
 H   -4.308515   -0.242806   -2.924758
 H   -3.280503   -1.291370   -0.241507
 H   -4.964389   -1.231635   -0.741719
 H   -4.493232   -2.775422   -2.618282
 H   -4.021198   -3.514261   -1.095917
 H   -2.275964   -3.836366   -2.860421
 H   -1.652077   -2.912478   -1.505666
 H   -0.300821    3.103169    0.539183
 H   -1.732147    0.954338    2.149332
 H   -2.437913    1.869334    0.817779
 H   -2.160102    3.980126    2.097826
 H   -3.122413    2.829558    3.011888
 H   -1.395228    3.914666    4.461136
 H   -1.127378    2.181241    4.337318
 H    1.014947    3.395031    4.049538
 H    0.331451    4.319754    2.721383
 H    0.482050    3.352051   -1.843683
 H    4.518086    4.180606   -3.117740
 H    3.604415   -0.151937    2.441400
 H    3.294867   -2.014119    4.053762
 H    1.223414   -5.635830    2.563863
 H    0.917730   -5.746744    4.313126
 H   -0.133057   -4.736928    3.292124
 H    0.547875   -3.852236    1.299315
