72 
5q19_ligand_ani-2x.xyz
 N    3.452548    0.573424   -0.304046
 C    2.124496   -0.976484    1.055343
 C   -1.132771    1.018314   -0.904500
 C   -0.113027    1.009549    0.257597
 C    1.791925    1.903094   -1.136771
 C    3.172650    1.654213   -1.125287
 C    1.762451   -3.046133    2.912683
 C    4.037537    2.473040   -1.861006
 C    0.853364    2.347406    2.194099
 C    1.524417   -2.484860   -1.511677
 C   -1.787532   -1.545526   -3.500060
 C    2.102879    3.772104   -2.559840
 O   -1.761722    2.018482   -1.235781
 N   -1.261294   -0.157023   -1.558145
 C   -2.161025   -0.297312   -2.696411
 C   -3.629033   -0.372710   -2.251650
 C   -3.923952   -1.654852   -1.471768
 C   -3.561564   -2.893727   -2.296195
 C   -2.097103   -2.846671   -2.747259
 C   -0.304221    2.218498    1.194528
 C   -1.637572    2.094337    1.943823
 C   -1.856177    3.254086    2.916378
 C   -0.697648    3.369267    3.908752
 C    0.635279    3.506341    3.170866
 N    1.227717    0.923368   -0.324394
 C    1.231881    2.971997   -1.836892
 C    3.488223    3.523676   -2.573126
 C    2.291137    0.166237    0.133438
 C    2.853363   -1.007996    2.245426
 C    2.672943   -2.015848    3.175256
 O    1.629234   -3.986597    3.881934
 C    0.721818   -5.041681    3.646062
 C    1.069887   -3.074296    1.702658
 C    1.282412   -2.059890    0.775913
 O    0.640699   -2.136217   -0.443149
 H   -0.251615    0.088751    0.828944
 H    5.106275    2.279182   -1.861122
 H    0.935509    1.408548    2.762453
 H    1.802485    2.482466    1.659834
 H    2.259402   -1.689849   -1.669690
 H    2.040899   -3.423321   -1.280224
 H    0.924401   -2.616397   -2.417636
 H   -2.357641   -1.531362   -4.439393
 H   -0.727512   -1.495764   -3.781923
 H    1.710806    4.611847   -3.126857
 H   -0.681573   -0.943906   -1.290779
 H   -2.042453    0.599054   -3.316732
 H   -3.863588    0.518235   -1.661403
 H   -4.257441   -0.341089   -3.153794
 H   -3.342224   -1.646531   -0.539487
 H   -4.981042   -1.680340   -1.183075
 H   -4.210789   -2.935115   -3.183166
 H   -3.754091   -3.808665   -1.722836
 H   -1.865034   -3.705227   -3.388551
 H   -1.444405   -2.938962   -1.866817
 H   -0.334868    3.125417    0.573349
 H   -1.631808    1.146826    2.504947
 H   -2.461844    2.037301    1.224370
 H   -1.937408    4.189894    2.343860
 H   -2.808179    3.130127    3.446523
 H   -0.852902    4.216655    4.587715
 H   -0.669255    2.465352    4.534597
 H    1.467153    3.557898    3.883985
 H    0.645005    4.453549    2.611303
 H    0.163055    3.163857   -1.809984
 H    4.140654    4.173003   -3.151856
 H    3.569647   -0.211741    2.435734
 H    3.220076   -2.033714    4.112026
 H    1.015040   -5.635441    2.770282
 H    0.754577   -5.671527    4.536229
 H   -0.300510   -4.667936    3.502239
 H    0.379176   -3.871187    1.449733
