72 
5q1a_ligand_xtb.xyz
 N    2.413342   -0.054132   -2.050014
 C    2.471271   -0.002213    0.389982
 C   -1.744266   -0.100098   -0.194010
 C   -0.467260    0.750004   -0.004163
 C    0.220302    0.429748   -2.398213
 C   -2.331828   -2.483610   -0.509113
 C    2.810480   -1.105264    2.505792
 C   -2.010348   -3.351122   -1.559100
 C   -0.777806    2.258073    0.019870
 C   -0.927400    0.659961   -3.142095
 C   -3.989030   -4.626524   -1.060288
 C   -2.851405   -4.420887   -1.820831
 C   -0.784839   -3.112670   -2.390001
 C    5.396963    0.519179    4.457218
 O    4.368301   -0.356199    4.059464
 C    3.800009   -0.177165    2.837982
 C    4.134172    0.825745    1.937564
 C    3.470043    0.896114    0.725343
 C    2.152481   -1.031014    1.292705
 O    1.193785   -1.920049    0.886234
 C    0.886108   -3.009857    1.727294
 C    1.804002    0.104751   -0.909987
 C    1.458468    0.133182   -3.015102
 C    1.555438    0.064646   -4.400263
 C    0.410821    0.295943   -5.132725
 C   -0.807695    0.587468   -4.515597
 N    0.467514    0.397624   -1.044619
 C   -1.509019    2.617258    1.314692
 C   -1.832471    4.107314    1.357184
 C   -0.558139    4.935700    1.235291
 C    0.176380    4.580932   -0.052978
 C    0.500185    3.090629   -0.097131
 O   -2.855111    0.372265   -0.291730
 N   -1.445751   -1.413783   -0.248506
 C   -4.283661   -3.772603   -0.015334
 C   -3.457974   -2.696810    0.287303
 C   -3.765154   -1.811332    1.452627
 H   -0.010969    0.470818    0.954072
 H    2.597274   -1.876260    3.227121
 H   -1.433252    2.488069   -0.825684
 H   -1.875678    0.875233   -2.675107
 H   -4.641466   -5.458479   -1.279392
 H   -2.616380   -5.092863   -2.633251
 H   -0.712968   -3.853728   -3.181534
 H   -0.815370   -2.123493   -2.846591
 H    0.122332   -3.171873   -1.786185
 H    5.042478    1.552747    4.520798
 H    5.703184    0.182461    5.446253
 H    6.252122    0.468236    3.776350
 H    4.902027    1.547870    2.160499
 H    3.728019    1.666781    0.015918
 H    1.767011   -3.630738    1.909907
 H    0.472029   -2.672117    2.682021
 H    0.134375   -3.594907    1.198447
 H    2.498093   -0.163640   -4.870816
 H    0.450608    0.250385   -6.211146
 H   -1.679753    0.758215   -5.129153
 H   -2.430864    2.039527    1.383108
 H   -0.876405    2.359206    2.169263
 H   -2.345689    4.344803    2.291233
 H   -2.505936    4.352764    0.533658
 H   -0.801074    6.000189    1.244802
 H    0.090874    4.732487    2.090719
 H   -0.450890    4.837922   -0.909534
 H    1.099779    5.159075   -0.129603
 H    1.016887    2.864099   -1.032389
 H    1.172126    2.836914    0.728172
 H   -0.460861   -1.651154   -0.275064
 H   -5.163867   -3.943599    0.586998
 H   -2.867767   -1.627954    2.043158
 H   -4.523219   -2.262670    2.087497
 H   -4.127920   -0.845829    1.101113
