28 
5qa4_ligand_ani-2x.xyz
 C   96.762378  254.536807    7.123697
 O   96.706556  255.433783    8.133520
 C   96.267694  253.151146    7.425670
 C   94.583837  248.904030    5.270329
 C   95.400510  250.541280    7.849431
 C   94.892104  251.578439    8.623234
 C   95.317305  252.885532    8.413861
 C   96.764020  252.109677    6.647515
 C   96.334201  250.796132    6.837218
 C   96.903999  249.707091    5.994685
 C   98.294719  249.588836    5.907306
 C   98.890445  248.571881    5.175208
 C   98.088949  247.667838    4.488873
 C   96.705601  247.798212    4.542884
 C   96.090169  248.807510    5.282180
 O   97.192011  254.864549    6.048822
 H   96.487723  254.992310    8.965373
 H   94.142391  248.419650    6.148818
 H   94.248141  249.945183    5.271406
 H   94.169439  248.406521    4.388873
 H   95.073320  249.520821    8.033320
 H   94.162874  251.364083    9.399055
 H   94.877450  253.690611    9.000977
 H   97.484304  252.349944    5.868407
 H   98.908767  250.308435    6.445215
 H   99.973074  248.491509    5.133588
 H   98.538956  246.868143    3.905578
 H   96.076663  247.101746    3.990958
