28 
5qa5_ligand_ani-2x.xyz
 C   97.394462  254.876229    7.197286
 O   96.851642  256.047860    7.595873
 C   96.638359  253.628338    7.551271
 C   97.736834  249.744685    5.791215
 C   95.325954  251.240662    8.114282
 C   95.125515  252.352710    8.926035
 C   95.774954  253.550554    8.646008
 C   96.871108  252.498762    6.772743
 C   96.208729  251.296391    7.029532
 C   96.443310  250.100608    6.175124
 C   95.373019  249.315300    5.737833
 C   95.602070  248.210818    4.928939
 C   96.900976  247.867861    4.560613
 C   97.986919  248.629348    4.991537
 C   99.398558  248.267236    4.599983
 O   98.432414  254.867914    6.588959
 H   95.955475  255.907829    7.930423
 H   98.569902  250.353326    6.141061
 H   94.813761  250.307909    8.338213
 H   94.445732  252.290302    9.771732
 H   95.629765  254.402836    9.308477
 H   97.572127  252.582204    5.945483
 H   94.358117  249.587533    6.018228
 H   94.764655  247.607328    4.588269
 H   97.073208  246.997600    3.930701
 H   99.874280  249.080812    4.039942
 H  100.017121  248.073023    5.484034
 H   99.421334  247.371923    3.972705
