28 
5qa5_ligand_aiqm1.xyz
 C   97.442629  254.863074    7.253269
 O   96.892441  256.037717    7.648521
 C   96.664030  253.623587    7.571156
 C   97.743097  249.764631    5.759294
 C   95.277222  251.262982    8.061143
 C   95.051006  252.380843    8.860252
 C   95.736891  253.566559    8.614204
 C   96.906113  252.491726    6.793616
 C   96.211787  251.301051    7.017774
 C   96.451985  250.101221    6.176210
 C   95.384227  249.284372    5.788875
 C   95.614507  248.160304    5.002077
 C   96.908353  247.836009    4.600759
 C   97.990328  248.634957    4.974616
 C   99.393218  248.296220    4.543182
 O   98.492670  254.860147    6.672710
 H   96.008378  255.879522    7.991560
 H   98.576371  250.391081    6.059527
 H   94.742579  250.342369    8.260926
 H   94.344414  252.328729    9.678621
 H   95.575416  254.418731    9.265233
 H   97.643863  252.561471    6.004982
 H   94.375112  249.540572    6.087973
 H   94.782848  247.536665    4.700089
 H   97.079046  246.956491    3.991159
 H   99.798826  249.070212    3.889069
 H  100.057950  248.218339    5.404772
 H   99.414993  247.348320    4.004926
