26 
5qa6_ligand_xtb.xyz
 C   97.184275  254.563220    6.988643
 O   97.616460  254.811050    5.896269
 C   96.586097  253.245626    7.347529
 O   94.534387  248.989184    5.852566
 C   96.916007  252.156363    6.547788
 O   97.239301  255.486131    7.969050
 C   96.404918  250.891114    6.812203
 C   96.789927  249.752230    5.963491
 C   95.541540  250.732439    7.894229
 C   95.194152  251.815553    8.681050
 C   95.711586  253.071555    8.418610
 C   98.117436  249.583294    5.583729
 C   98.510094  248.527470    4.782494
 C   97.566344  247.620339    4.334236
 C   96.239876  247.773163    4.692898
 C   95.841603  248.825942    5.507152
 H   93.997682  248.322930    5.406196
 H   97.570470  252.322303    5.705267
 H   96.901386  255.148430    8.809027
 H   95.140829  249.756754    8.118014
 H   94.512946  251.680739    9.508236
 H   95.395865  253.906464    9.031498
 H   98.852274  250.288969    5.941226
 H   99.547218  248.414279    4.507192
 H   97.857968  246.793867    3.704033
 H   95.496760  247.070190    4.338075
