26 
5qa7_ligand_xtb.xyz
 C   96.998499  253.591822    7.065981
 O   98.047956  253.682032    6.491137
 C   96.340687  252.284898    7.357516
 C   95.195182  249.797617    7.796188
 C   94.865294  250.865625    8.610708
 C   95.427419  252.111559    8.395652
 C   96.687654  251.200779    6.558337
 C   96.115473  249.950172    6.760098
 C   96.476234  248.812174    5.900719
 C   97.797734  248.617662    5.520777
 C   98.146465  247.541482    4.713165
 C   97.165489  246.659267    4.274831
 C   95.848007  246.856986    4.648234
 C   95.500201  247.920389    5.458608
 O   99.455068  247.391362    4.380283
 O   96.343716  254.696616    7.473055
 H   94.756726  248.828279    7.980643
 H   94.167223  250.726608    9.422981
 H   95.175081  252.923703    9.065393
 H   97.398303  251.359493    5.761625
 H   98.576971  249.281395    5.859835
 H   97.435133  245.822820    3.643587
 H   95.088174  246.172555    4.301214
 H   94.467166  248.075877    5.730217
 H   99.565605  246.616786    3.815779
 H   95.491341  254.489742    7.878536
