26 
5qa8_ligand_ani-2x.xyz
 C   28.173295  -14.286837  -23.738951
 O   28.942442  -14.823572  -24.723553
 C   27.536328  -13.075209  -24.010847
 C   25.351494  -11.763408  -18.447673
 C   25.787775  -11.655356  -17.013481
 C   26.142868  -12.358000  -19.430152
 C   26.734212  -12.489782  -23.044990
 C   28.006075  -14.895491  -22.495454
 C   27.212046  -14.285208  -21.533550
 C   26.558370  -13.078613  -21.788631
 C   25.705224  -12.441430  -20.753088
 C   24.448240  -11.915221  -21.074783
 C   23.638692  -11.353999  -20.092764
 C   24.083721  -11.286193  -18.777244
 O   27.120738  -11.610989  -16.792770
 O   25.017277  -11.603964  -16.091755
 H   29.322261  -15.654143  -24.410492
 H   27.674833  -12.613900  -24.983714
 H   27.109339  -12.791953  -19.175206
 H   26.245593  -11.541504  -23.259388
 H   28.502367  -15.838902  -22.273967
 H   27.077438  -14.764509  -20.566597
 H   24.092697  -11.975232  -22.100826
 H   22.658420  -10.967127  -20.355826
 H   23.465698  -10.865357  -17.989796
 H   27.592657  -11.519198  -17.632202
