26 
5qa8_ligand_aiqm1.xyz
 C   28.163752  -14.282451  -23.745699
 O   28.926001  -14.824911  -24.738406
 C   27.457873  -13.118579  -24.043475
 C   25.341794  -11.764776  -18.444564
 C   25.758543  -11.669576  -17.008505
 C   26.135666  -12.368000  -19.419307
 C   26.664690  -12.531251  -23.067117
 C   28.075260  -14.845872  -22.475921
 C   27.282161  -14.242390  -21.505771
 C   26.561386  -13.078206  -21.781930
 C   25.712716  -12.439393  -20.750177
 C   24.468447  -11.887234  -21.082691
 C   23.663825  -11.299125  -20.109007
 C   24.095419  -11.240368  -18.789949
 O   27.087113  -11.754078  -16.752132
 O   24.984225  -11.514819  -16.105220
 H   29.355174  -15.615913  -24.405743
 H   27.540398  -12.689800  -25.032818
 H   27.085314  -12.816556  -19.149783
 H   26.127256  -11.620305  -23.301305
 H   28.619042  -15.754315  -22.242707
 H   27.211302  -14.697384  -20.525652
 H   24.121087  -11.941959  -22.107311
 H   22.697455  -10.894333  -20.380991
 H   23.487123  -10.800502  -18.012196
 H   27.577077  -11.763006  -17.579325
