29 
5qaa_ligand_xtb.xyz
 C   98.211935  254.620773    6.863385
 O   98.279384  255.438541    7.739512
 C   97.605315  253.272260    7.053285
 C   94.481416  248.564477    4.598169
 C   96.412899  250.806212    7.498044
 C   96.081347  251.889157    8.292854
 C   96.676880  253.117922    8.080254
 C   97.946051  252.177403    6.265173
 C   97.355496  250.936653    6.481449
 C   97.754276  249.784691    5.653415
 C   99.099855  249.500946    5.464149
 C   99.505318  248.424528    4.694831
 C   98.552914  247.621521    4.097270
 C   97.204162  247.889658    4.263178
 C   96.790066  248.965479    5.039051
 O   95.486937  249.313621    5.234773
 O   98.682164  254.897850    5.631113
 H   94.585211  248.592652    3.508756
 H   94.477435  247.523259    4.936924
 H   93.542324  249.037367    4.881572
 H   95.954325  249.845857    7.673144
 H   95.357972  251.771912    9.085772
 H   96.436294  253.973893    8.691604
 H   98.692155  252.259810    5.484026
 H   99.836655  250.125356    5.948319
 H  100.555986  248.215385    4.566000
 H   98.853060  246.777782    3.494129
 H   96.481149  247.250483    3.781670
 H   98.520518  254.176654    5.008280
