29 
5qaa_ligand_ani-2x.xyz
 C   98.289238  254.635569    6.915283
 O   98.432074  255.422481    7.812969
 C   97.631284  253.295310    7.088772
 C   94.493601  248.441620    4.575263
 C   96.350950  250.854626    7.484368
 C   96.072905  251.931083    8.318977
 C   96.718243  253.147955    8.131169
 C   97.938958  252.198702    6.283999
 C   97.306863  250.967778    6.468265
 C   97.708890  249.804170    5.622730
 C   99.063442  249.534245    5.428949
 C   99.497703  248.452436    4.672807
 C   98.558436  247.625180    4.074082
 C   97.198801  247.874073    4.234333
 C   96.771692  248.955930    5.005189
 O   95.460022  249.262623    5.189061
 O   98.722554  254.932099    5.669554
 H   94.592798  248.449987    3.481916
 H   94.558539  247.407190    4.937080
 H   93.525764  248.861185    4.852837
 H   95.835677  249.909819    7.621251
 H   95.345986  251.820725    9.118875
 H   96.525991  253.999155    8.778002
 H   98.704138  252.279900    5.511864
 H   99.790655  250.184361    5.910042
 H  100.560143  248.265124    4.547389
 H   98.877977  246.776244    3.473983
 H   96.479374  247.217745    3.756909
 H   98.406804  254.264783    5.044182
