29 
5qaa_ligand_aiqm1.xyz
 C   98.249934  254.637918    6.876376
 O   98.287287  255.480466    7.730358
 C   97.622427  253.292817    7.069796
 C   94.483073  248.502861    4.580163
 C   96.390170  250.835722    7.514952
 C   96.083048  251.927446    8.323087
 C   96.699475  253.154404    8.106925
 C   97.942375  252.191429    6.276176
 C   97.329719  250.951165    6.482868
 C   97.721574  249.788753    5.640099
 C   99.073137  249.511178    5.434558
 C   99.489962  248.427468    4.665183
 C   98.536136  247.607569    4.080522
 C   97.175567  247.864625    4.256476
 C   96.768943  248.948056    5.033723
 O   95.465312  249.274832    5.247538
 O   98.784817  254.891648    5.655920
 H   94.616710  248.541777    3.496871
 H   94.501310  247.461973    4.912808
 H   93.529277  248.949670    4.843102
 H   95.898366  249.884884    7.673640
 H   95.363454  251.819932    9.125790
 H   96.485403  254.015204    8.725202
 H   98.698672  252.275706    5.502176
 H   99.809975  250.156092    5.899675
 H  100.543860  248.231901    4.530297
 H   98.841317  246.760580    3.480612
 H   96.448073  247.218317    3.787874
 H   98.580129  254.167709    5.057334
