27 
5qaj_ligand_aiqm1.xyz
 N    9.264511  -25.656061    3.672250
 C    8.776299  -24.551930    4.374915
 O    7.116309  -17.209462    4.533152
 C    9.480175  -23.343652    4.385181
 C    6.482424  -21.203689    7.577336
 C    7.026236  -23.488729    5.666084
 C    7.540270  -24.609671    5.026545
 C    8.954970  -22.225672    5.020928
 C    7.720414  -22.274192    5.677005
 C    7.164203  -21.083822    6.358705
 C    7.300691  -19.809254    5.799258
 C    6.775086  -18.685042    6.434909
 C    6.900602  -17.303869    5.868209
 C    6.119146  -18.821463    7.659168
 C    5.970685  -20.081281    8.225077
 O    6.808408  -16.307381    6.530350
 H   10.266423  -25.664031    3.563523
 H    8.926303  -26.542396    4.012467
 H    7.056397  -18.081390    4.132490
 H   10.439844  -23.276233    3.885603
 H    6.374468  -22.182081    8.029895
 H    6.059339  -23.555017    6.150345
 H    6.972646  -25.533221    5.021015
 H    9.525188  -21.304138    5.022356
 H    7.848856  -19.705124    4.869755
 H    5.742398  -17.932229    8.144753
 H    5.462909  -20.191770    9.174826
