27 
5qaj_ligand_xtb.xyz
 N    9.265197  -25.618041    3.709935
 C    8.779281  -24.531907    4.400389
 O    7.038715  -17.245323    4.517238
 C    9.489290  -23.329991    4.431816
 C    6.498221  -21.205542    7.578393
 C    7.018168  -23.473793    5.660898
 C    7.532089  -24.583586    5.026501
 C    8.964390  -22.220615    5.058243
 C    7.721037  -22.270045    5.687026
 C    7.166491  -21.088791    6.359777
 C    7.296877  -19.824761    5.789897
 C    6.781874  -18.700254    6.425873
 C    6.903251  -17.328361    5.855849
 C    6.139617  -18.836040    7.654779
 C    5.994141  -20.088683    8.220172
 O    6.872871  -16.333910    6.527653
 H   10.251487  -25.626173    3.509422
 H    8.867602  -26.515186    3.933748
 H    6.999036  -18.112568    4.092228
 H   10.460002  -23.277083    3.959638
 H    6.399552  -22.178816    8.035783
 H    6.044757  -23.532622    6.125521
 H    6.969222  -25.506007    5.006764
 H    9.543220  -21.308742    5.088402
 H    7.826559  -19.739524    4.849113
 H    5.760772  -17.950748    8.141206
 H    5.491480  -20.195689    9.169834
