27 
5qaj_ligand_ani-2x.xyz
 N    9.286350  -25.646969    3.685093
 C    8.785651  -24.549019    4.377389
 O    6.972094  -17.232863    4.490070
 C    9.522301  -23.360430    4.464006
 C    6.509733  -21.195587    7.596015
 C    6.994349  -23.470157    5.593495
 C    7.507605  -24.584718    4.949744
 C    8.988662  -22.249621    5.096625
 C    7.718994  -22.279300    5.679348
 C    7.165245  -21.083780    6.363547
 C    7.290021  -19.816898    5.789661
 C    6.774958  -18.686688    6.423861
 C    6.890952  -17.307621    5.837396
 C    6.166664  -18.811517    7.672008
 C    6.026126  -20.067827    8.250864
 O    6.908676  -16.306846    6.503624
 H   10.293297  -25.687521    3.614649
 H    8.892697  -26.538565    3.950904
 H    6.799089  -18.100826    4.099575
 H   10.512607  -23.309182    4.017330
 H    6.406344  -22.174955    8.057508
 H    5.996927  -23.518490    6.024989
 H    6.918318  -25.496720    4.888472
 H    9.577721  -21.337326    5.162229
 H    7.822592  -19.724586    4.843571
 H    5.810262  -17.914191    8.168912
 H    5.536964  -20.170597    9.215216
