29 
5qal_ligand_ani-2x.xyz
 N  -14.056172  -27.410829   30.924727
 C  -11.210381  -19.635397   26.622081
 O  -12.234613  -19.391037   27.204036
 C  -10.763989  -21.030644   26.292961
 C  -10.606751  -25.512362   28.139502
 C  -10.044573  -23.667313   25.773166
 C   -9.567542  -22.643538   24.961113
 C   -9.919528  -21.322692   25.219784
 C  -11.275307  -22.064167   27.071400
 C  -10.911950  -23.391903   26.837057
 C  -11.441826  -24.483995   27.690886
 C  -12.791248  -24.510931   28.062033
 C  -13.289860  -25.526437   28.862509
 C  -12.442104  -26.532969   29.328369
 C  -12.915700  -27.655059   30.200579
 C  -11.101009  -26.524918   28.945625
 O  -12.336163  -28.725519   30.251570
 O  -10.395725  -18.630269   26.232000
 H  -14.282851  -28.121620   31.605455
 H  -14.304177  -26.463887   31.167195
 H   -9.554501  -25.505106   27.865207
 H   -9.766253  -24.698057   25.566857
 H   -8.903744  -22.874630   24.132142
 H   -9.561250  -20.536281   24.556867
 H  -11.955844  -21.810025   27.880687
 H  -13.456079  -23.727614   27.705626
 H  -14.349075  -25.544381   29.106797
 H  -10.460634  -27.333409   29.283971
 H   -9.551051  -18.982513   25.920398
