32 
5qap_ligand_ani-2x.xyz
 C   90.588312  233.122697   -4.400592
 C   96.149199  233.840738   -6.843906
 C   91.826745  232.759117   -4.913147
 C   94.910637  234.192472   -6.317125
 N   91.278874  236.624844   -3.375930
 C   96.563735  230.363600   -5.347321
 O   97.437086  229.796901   -6.209120
 C   96.014509  231.706780   -5.732935
 C   96.706074  232.599141   -6.554520
 C   94.782049  232.071102   -5.199330
 C   94.207494  233.309181   -5.489646
 C   92.879046  233.680420   -4.927572
 C   92.656995  234.953200   -4.406384
 C   91.414305  235.314724   -3.880935
 C   90.179640  237.210502   -2.802175
 C   90.392993  238.647782   -2.367643
 C   90.365684  234.393082   -3.879465
 O   89.107650  236.655861   -2.639660
 O   96.262065  229.794218   -4.331426
 H   89.775116  232.401463   -4.397765
 H   96.682602  234.537895   -7.484724
 H   91.982381  231.764146   -5.322266
 H   94.472041  235.157960   -6.557886
 H   92.106077  237.197352   -3.449675
 H   97.462969  230.294060   -7.037909
 H   97.694235  232.354458   -6.941746
 H   94.287366  231.373666   -4.527612
 H   93.476590  235.669027   -4.395170
 H   89.666322  239.273601   -2.891202
 H   90.176411  238.716214   -1.299018
 H   91.399806  239.030051   -2.556704
 H   89.403193  234.676749   -3.475792
