32 
5qaq_ligand_aiqm1.xyz
 N   96.326976  236.513709   -4.327041
 C   96.910914  238.266190   -2.785276
 O   98.312540  236.360654   -3.213274
 C   97.280511  236.954883   -3.444123
 C   95.496266  230.832628   -9.743412
 C   95.893545  229.587113   -9.266215
 C   96.382740  229.471620   -7.963165
 C   96.483979  230.603350   -7.154861
 C   96.831616  228.164624   -7.384704
 C   96.322714  235.347296   -5.113797
 C   97.353381  234.401489   -5.099317
 C   97.256225  233.275416   -5.911247
 C   96.160229  233.058038   -6.751668
 C   95.141618  234.015169   -6.755585
 C   95.218960  235.140928   -5.946482
 C   96.073828  231.856515   -7.615532
 C   95.573647  231.953785   -8.921204
 O   97.600676  228.070490   -6.468817
 O   96.307770  227.046481   -7.945160
 H   95.517111  237.100990   -4.428546
 H   97.709444  238.546669   -2.106921
 H   96.777503  239.045390   -3.537161
 H   95.977358  238.162858   -2.230328
 H   95.132254  230.928207  -10.758391
 H   95.860300  228.729239   -9.928714
 H   96.882244  230.481574   -6.156108
 H   98.214210  234.544493   -4.465327
 H   98.061624  232.551153   -5.899982
 H   94.269391  233.873776   -7.382234
 H   94.409622  235.864009   -5.962165
 H   95.266352  232.920501   -9.301680
 H   95.630353  227.292360   -8.581462
