32 
5qaq_ligand_xtb.xyz
 N   96.335629  236.484089   -4.332960
 C   96.921638  238.226547   -2.801955
 O   98.325928  236.325385   -3.227643
 C   97.296330  236.912694   -3.458637
 C   95.502051  230.846889   -9.726496
 C   95.901949  229.610772   -9.250101
 C   96.383279  229.498930   -7.947133
 C   96.469007  230.631893   -7.145430
 C   96.843335  228.206994   -7.359925
 C   96.311517  235.332795   -5.122779
 C   97.330135  234.383351   -5.114461
 C   97.236438  233.265219   -5.918295
 C   96.141103  233.064508   -6.755764
 C   95.128161  234.021460   -6.760741
 C   95.208517  235.136127   -5.953197
 C   96.056633  231.874912   -7.613207
 C   95.567661  231.965590   -8.916362
 O   97.614631  228.143756   -6.442739
 O   96.335334  227.085016   -7.905771
 H   95.522493  237.076156   -4.435894
 H   97.713783  238.521128   -2.120152
 H   96.792112  239.001216   -3.555051
 H   95.993216  238.117634   -2.244902
 H   95.140927  230.938027  -10.740303
 H   95.869447  228.756838   -9.914512
 H   96.844602  230.517733   -6.139950
 H   98.187320  234.528518   -4.479211
 H   98.039838  232.544366   -5.911764
 H   94.257406  233.879256   -7.383854
 H   94.408371  235.864116   -5.961687
 H   95.263381  232.925674   -9.305864
 H   95.693729  227.274015   -8.603161
