38 
5qar_ligand_xtb.xyz
 N   99.580488  245.731643    7.823798
 C   98.574746  246.338448    9.916863
 O   94.336393  252.552619    6.507768
 C   99.830742  246.073520    9.111688
 C   94.624511  247.685630    5.212027
 C   93.557855  248.445117    5.656976
 C   93.755210  249.742432    6.096540
 C   95.040637  250.279572    6.098964
 C   95.342548  251.661241    6.575115
 C   96.112018  249.503612    5.670314
 C   98.272588  247.439730    5.432165
 C  100.626154  245.550169    6.847627
 C  100.634810  246.681216    5.804648
 C   99.355328  246.676049    5.019812
 C   99.214139  245.857647    3.904912
 C   98.014502  245.810493    3.217639
 C   96.937563  246.567814    3.640386
 C   97.056699  247.393841    4.755040
 C   95.918954  248.204470    5.215018
 O   96.420581  251.984447    6.991739
 O  100.950593  246.140591    9.567496
 H   98.633826  245.757865    7.478159
 H   98.844512  246.511243   10.954259
 H   98.066896  247.220016    9.530322
 H   97.898587  245.488921    9.854716
 H   93.538382  252.179107    6.110900
 H   94.457359  246.671040    4.882039
 H   92.564182  248.022337    5.665994
 H   92.909317  250.306196    6.468028
 H   97.096812  249.945720    5.678983
 H   98.371863  248.075700    6.300656
 H  100.491904  244.585989    6.345434
 H  101.567899  245.542350    7.400450
 H  101.486057  246.530880    5.139681
 H  100.759921  247.633479    6.321944
 H  100.050905  245.260873    3.572102
 H   97.917865  245.180274    2.345861
 H   96.009254  246.540009    3.089339
