38 
5qar_ligand_ani-2x.xyz
 N   99.794153  245.687832    7.814387
 C   98.868922  245.536018   10.051410
 O   94.209301  252.828723    5.930103
 C  100.082992  245.598112    9.145002
 C   94.510002  247.793720    5.411221
 C   93.454010  248.607489    5.809311
 C   93.657703  249.967509    6.019482
 C   94.931294  250.511259    5.839498
 C   95.237279  251.962919    6.070516
 C   95.992519  249.682678    5.488352
 C   98.181651  247.586579    5.473424
 C  100.825800  245.746112    6.800546
 C  100.594666  246.915925    5.838819
 C   99.274047  246.801695    5.110539
 C   99.108978  245.863012    4.087898
 C   97.881357  245.724348    3.449730
 C   96.799460  246.509314    3.831455
 C   96.938281  247.456419    4.848687
 C   95.797024  248.320529    5.252244
 O   96.331463  252.367366    6.364837
 O  101.228016  245.580726    9.567824
 H   98.832057  245.734537    7.511289
 H   99.201529  245.280872   11.057714
 H   98.364329  246.508533   10.086783
 H   98.143785  244.789768    9.709151
 H   93.442916  252.382357    5.545290
 H   94.342951  246.731623    5.248328
 H   92.462419  248.182154    5.939948
 H   92.826829  250.584295    6.359269
 H   96.980404  250.126106    5.384962
 H   98.287175  248.311447    6.279922
 H  100.863914  244.797811    6.245795
 H  101.775192  245.855576    7.326953
 H  101.421436  246.954782    5.119056
 H  100.622365  247.849102    6.413119
 H   99.950286  245.237942    3.794467
 H   97.762855  244.992715    2.654737
 H   95.843238  246.404392    3.323332
