30 
5qau_ligand_xtb.xyz
 N   72.659895  235.397865   37.387773
 C   79.509811  230.750751   35.028438
 O   80.708694  230.176202   34.852324
 C   79.564358  232.228926   35.074572
 C   76.063452  234.560490   36.161989
 C   79.563280  234.993977   35.184481
 C   80.759545  234.304809   35.087376
 C   80.770399  232.923083   35.030918
 C   78.363128  232.923221   35.172651
 C   78.347933  234.311238   35.228458
 C   77.075106  235.041408   35.337862
 C   76.861807  236.218310   34.622733
 C   75.662796  236.901385   34.732040
 C   74.660448  236.425292   35.554236
 C   74.857715  235.246169   36.273555
 C   73.790166  234.770709   37.125337
 N   71.968878  234.619382   38.202781
 N   72.589504  233.549149   38.465299
 N   73.753631  233.592045   37.808282
 O   78.498917  230.101675   35.140613
 H   80.609945  229.211566   34.831819
 H   76.239452  233.660257   36.732795
 H   79.569452  236.072209   35.247495
 H   81.690659  234.850843   35.059337
 H   81.698232  232.378847   34.956634
 H   77.444476  232.355732   35.180902
 H   77.633333  236.586924   33.963324
 H   75.509753  237.810032   34.169677
 H   73.719996  236.942471   35.656419
 H   74.418240  232.837033   37.856883
