30 
5qav_ligand_xtb.xyz
 N   83.141280  238.683716   31.864520
 C   79.085173  232.427729   35.873598
 N   82.470963  239.611234   32.402928
 N   81.672129  239.046511   33.315860
 C   80.096115  234.684746   35.644748
 C   79.760129  236.022750   35.845134
 C   81.275017  236.696361   34.104651
 C   80.336926  237.019070   35.084550
 C   81.909593  237.704426   33.288255
 C   78.095770  230.174157   35.960877
 C   78.496390  231.427188   36.639609
 C   81.031806  234.368256   34.659543
 C   79.270706  233.804653   37.824382
 C   78.690532  232.807393   38.588489
 C   78.298513  231.616674   38.004887
 C   79.476403  233.627394   36.456083
 C   81.617750  235.358602   33.901234
 N   82.835098  237.501565   32.369948
 O   77.530873  229.277679   36.784711
 O   78.250340  229.952922   34.785631
 H   79.210401  232.257921   34.814753
 H   81.037069  239.592235   33.874807
 H   79.022377  236.281770   36.590150
 H   80.052385  238.046905   35.259215
 H   81.312319  233.337649   34.504127
 H   79.589113  234.723105   38.295502
 H   78.545461  232.960341   39.647557
 H   77.844021  230.835401   38.592799
 H   82.347037  235.124461   33.142014
 H   77.292312  228.481183   36.285437
