30 
5qav_ligand_aiqm1.xyz
 N   83.151374  238.776392   31.863761
 C   79.084867  232.395731   35.876972
 N   82.433595  239.688452   32.424780
 N   81.657656  239.049047   33.316846
 C   80.112711  234.668581   35.627640
 C   79.772814  236.012788   35.832229
 C   81.295289  236.698643   34.089718
 C   80.353181  237.020137   35.071297
 C   81.927803  237.733913   33.274554
 C   78.071688  230.149601   35.980564
 C   78.483218  231.408368   36.656749
 C   81.056037  234.360702   34.637686
 C   79.274275  233.797554   37.820833
 C   78.681374  232.806969   38.601983
 C   78.279612  231.608015   38.023775
 C   79.484306  233.604167   36.448776
 C   81.644540  235.361592   33.878398
 N   82.865534  237.551641   32.364672
 O   77.494373  229.272529   36.830529
 O   78.223858  229.912385   34.808447
 H   79.219387  232.208722   34.820072
 H   81.001769  239.563246   33.872546
 H   79.035371  236.267828   36.582885
 H   80.066152  238.050044   35.253116
 H   81.335136  233.328661   34.472034
 H   79.594556  234.725289   38.280962
 H   78.535798  232.974751   39.661104
 H   77.815101  230.830789   38.613433
 H   82.376588  235.128628   33.118089
 H   77.266038  228.498836   36.301551
