31 
5qaw_ligand_ani-2x.xyz
 C   95.595324  255.158419    4.952261
 O   96.900878  255.482302    5.086113
 C   95.238363  253.720095    5.201075
 C  101.322565  248.612310    5.895437
 C  100.972215  247.383965    5.279447
 C   99.702465  247.187759    4.804975
 C   98.720467  248.207251    4.922595
 C   97.392928  248.038414    4.441784
 C   96.466067  249.033930    4.574296
 C   96.164016  252.684835    5.067454
 C   93.920557  253.430045    5.550830
 C   93.543934  252.115144    5.800490
 C   94.473764  251.088019    5.676351
 C   95.794561  251.359720    5.303336
 C   96.806413  250.272314    5.184230
 C   98.087621  250.452293    5.647474
 C   99.070553  249.435750    5.539589
 C  100.396722  249.612012    6.021396
 O   94.787932  255.997057    4.651593
 H   97.386608  254.736224    5.464281
 H  102.334664  248.752283    6.266480
 H  101.720453  246.600974    5.187593
 H   99.426280  246.248257    4.330876
 H   97.122007  247.096725    3.970153
 H   95.458402  248.895066    4.189788
 H   97.174870  252.884851    4.709877
 H   93.210382  254.248276    5.621220
 H   92.520586  251.886581    6.083737
 H   94.180003  250.062159    5.885494
 H   98.351686  251.394791    6.121646
 H  100.661213  250.556478    6.493026
