30 
5qax_ligand_xtb.xyz
 N  126.295645 -100.558287   33.097039
 C  131.895186 -103.935247   27.063065
 O  132.731905 -103.878583   26.205139
 C  130.731491 -103.003094   27.125090
 C  126.967964 -100.304517   34.183419
 C  128.373459 -100.321062   34.261583
 C  129.087972 -100.622794   33.135159
 C  128.396990 -100.905586   31.937528
 C  129.044248 -101.227709   30.731092
 C  130.078372 -102.697986   28.314394
 C  130.315239 -102.406225   25.937142
 C  129.239210 -101.538979   25.940593
 C  128.582480 -101.249437   27.123580
 C  129.002333 -101.815480   28.325839
 C  128.323487 -101.485668   29.588865
 C  126.912249 -101.429491   29.634124
 C  126.254890 -101.128545   30.791275
 C  126.976056 -100.856183   31.973107
 O  131.962977 -104.873074   28.027408
 H  126.376791 -100.070409   35.059914
 H  128.863632 -100.098662   35.196834
 H  130.169264 -100.649193   33.143298
 H  130.125556 -101.241989   30.711786
 H  130.403794 -103.123879   29.255448
 H  130.845931 -102.640908   25.027610
 H  128.912795 -101.081287   25.019026
 H  127.754584 -100.556074   27.124944
 H  126.355022 -101.651330   28.735658
 H  125.177907 -101.090971   30.836476
 H  131.201470 -104.846052   28.621865
