29 
5qaz_ligand_xtb.xyz
 N   99.246633  245.167887    4.638813
 C   96.601973  253.392260    5.671363
 O   95.946522  254.451740    6.177769
 C   96.275844  252.119189    6.346226
 C  100.499425  245.681965    4.439000
 C  100.517402  247.001447    4.767351
 C   99.202474  247.341248    5.195715
 C   98.606628  248.516918    5.643678
 C   96.887358  250.956334    5.888476
 C   95.381778  252.065699    7.413124
 C   95.112165  250.847860    8.008904
 C   95.720844  249.692491    7.550582
 C   96.617693  249.728911    6.482634
 C   97.267890  248.501449    5.998195
 C   96.523395  247.312358    5.897345
 C   97.085016  246.138937    5.448474
 C   98.429957  246.157296    5.101115
 O   97.376993  253.508277    4.753609
 H   98.973095  244.215231    4.469144
 H   96.204313  255.251708    5.694399
 H  101.292526  245.057765    4.073486
 H  101.358135  247.663435    4.712543
 H   99.188480  249.421762    5.733884
 H   97.562954  251.026789    5.049297
 H   94.911459  252.970462    7.763810
 H   94.424404  250.797265    8.840409
 H   95.514482  248.750504    8.037637
 H   95.475167  247.331814    6.156406
 H   96.498992  245.235000    5.366614
