49 
5qb1_ligand_xtb.xyz
 N   -4.625823   11.902693  127.901579
 C   -7.156556    7.925379  122.244301
 O   -2.833029   12.605474  129.126002
 C   -8.861822    7.655138  124.044906
 C   -9.497761    6.525142  123.538638
 C  -11.384056    6.932777  124.968988
 C  -10.752932    6.173476  124.001855
 C  -10.754865    8.063707  125.486052
 C   -5.583511    8.172977  120.366909
 C   -5.902568    8.347535  121.813605
 C  -12.015872   10.353119  128.190096
 C   -9.499965    8.422241  125.014560
 C   -6.612506    8.600282  124.474656
 C   -5.352938    9.023314  124.064124
 C   -4.422098    9.615763  125.037248
 C   -3.058253    9.335076  125.002874
 C   -2.211339    9.908397  125.933557
 C   -2.693369   10.766011  126.905832
 C   -4.054919   11.053369  126.950618
 C   -4.021153   12.606224  128.904672
 C   -5.019478   13.403025  129.720582
 C   -4.907637   10.475927  126.014730
 C   -5.002769    8.894641  122.723179
 C   -7.527480    8.058207  123.576925
 C  -10.967248    9.845484  127.220699
 N  -11.425016    8.804800  126.466866
 O   -6.136852    7.367178  119.669777
 O   -9.856283   10.320302  127.141579
 O   -4.635851    8.982285  119.857180
 H   -5.630442   11.993386  127.826335
 H   -7.838225    7.517855  121.513842
 H   -9.004025    5.914268  122.798988
 H  -12.364806    6.651035  125.326421
 H  -11.244812    5.296366  123.608759
 H  -12.299990    9.564045  128.883558
 H  -11.609413   11.189551  128.750853
 H  -12.901082   10.681500  127.649385
 H   -9.031611    9.312832  125.396483
 H   -6.872930    8.662956  125.520100
 H   -2.667411    8.648536  124.266798
 H   -1.155816    9.682779  125.906175
 H   -2.029138   11.210719  127.626818
 H   -4.493575   13.930972  130.510427
 H   -5.530453   14.124939  129.086668
 H   -5.759270   12.739160  130.163044
 H   -5.961663   10.716020  126.039107
 H   -4.015074    9.212919  122.415159
 H  -12.362893    8.482423  126.663190
 H   -4.304123    9.614792  120.508399
