49 
5qb1_ligand_aiqm1.xyz
 N   -4.575743   11.914489  127.930490
 C   -7.156242    7.908361  122.246530
 O   -2.768587   12.607641  129.138553
 C   -8.884632    7.646405  124.051857
 C   -9.506631    6.502987  123.539838
 C  -11.421231    6.907292  124.957362
 C  -10.770231    6.141585  123.997485
 C  -10.802046    8.049853  125.475303
 C   -5.570089    8.145733  120.364226
 C   -5.897913    8.326022  121.815201
 C  -12.131536   10.352610  128.165556
 C   -9.538285    8.416287  125.018344
 C   -6.620430    8.628400  124.475113
 C   -5.344868    9.033328  124.069100
 C   -4.392877    9.634794  125.035320
 C   -3.019999    9.379852  124.960772
 C   -2.158271    9.965506  125.883017
 C   -2.623385   10.814924  126.884700
 C   -3.996898   11.074042  126.961077
 C   -3.965809   12.614962  128.939416
 C   -4.944166   13.403888  129.781996
 C   -4.863834   10.481163  126.040762
 C   -4.994050    8.875410  122.724327
 C   -7.535413    8.060812  123.581971
 C  -11.070229    9.845055  127.213668
 N  -11.503985    8.796898  126.444857
 O   -6.131314    7.360387  119.651200
 O   -9.953533   10.321239  127.149946
 O   -4.592102    8.936288  119.859691
 H   -5.576275   12.003704  127.875268
 H   -7.829699    7.478622  121.517196
 H   -9.000897    5.895688  122.801844
 H  -12.406829    6.615930  125.304707
 H  -11.254164    5.256422  123.607460
 H  -12.410849    9.568619  128.870768
 H  -11.731050   11.202573  128.707938
 H  -13.025300   10.653248  127.617567
 H   -9.065548    9.299877  125.416756
 H   -6.901668    8.735976  125.515639
 H   -2.633420    8.711304  124.202179
 H   -1.098171    9.754033  125.821786
 H   -1.943185   11.263941  127.590600
 H   -4.391201   13.921470  130.558722
 H   -5.476598   14.128671  129.164667
 H   -5.679089   12.737209  130.234879
 H   -5.928766   10.683522  126.106455
 H   -4.000232    9.165905  122.404811
 H  -12.443408    8.485850  126.624496
 H   -4.320022    9.578224  120.521681
