45 
5qb2_ligand_xtb.xyz
 N   91.005819  247.897190    3.530205
 C   93.020520  246.530447    4.900089
 O   98.554655  254.181643    5.211049
 C   91.984632  245.857830    4.312944
 C   95.742619  251.937025    5.124412
 C   96.779060  252.683376    5.676440
 C   97.446936  253.803167    4.948652
 C   95.638345  250.616581    7.125706
 C   96.676767  251.351374    7.690056
 C   97.248960  252.379734    6.949716
 C   97.163393  251.042223    9.043407
 C   96.240984  250.734527   10.068621
 C   96.666152  250.446042   11.333084
 C   98.509244  251.047816    9.323710
 C   90.997261  246.599060    3.636395
 C   98.977121  250.743855   10.616417
 C   98.040834  250.438637   11.642702
 C  100.739783  250.476744   12.036200
 C   99.903006  250.164898   13.124708
 C   98.549812  250.145895   12.924433
 C   92.016547  248.583131    4.098471
 C   93.066318  247.938145    4.808950
 C   92.033428  249.989369    3.986468
 C   93.045197  250.714501    4.545417
 C   94.092452  250.084113    5.254046
 C   94.089820  248.715020    5.380369
 C   95.171658  250.891608    5.844402
 N  100.307207  250.752642   10.839785
 O   96.734095  254.395049    3.971887
 H   93.803872  246.007522    5.431855
 H   91.912995  244.782107    4.359384
 H   95.402326  252.110614    4.111371
 H   95.189622  249.809519    7.686017
 H   98.052594  252.973525    7.356949
 H   95.184204  250.754256    9.844929
 H   95.954765  250.221353   12.115590
 H   99.240995  251.264337    8.561323
 H   90.165263  246.092770    3.163140
 H  101.814784  250.497636   12.165248
 H  100.333095  249.947131   14.090169
 H   97.863859  249.911560   13.727352
 H   91.226356  250.463792    3.450806
 H   93.040895  251.792651    4.471357
 H   94.892713  248.213703    5.903031
 H   95.844736  254.026580    3.888639
