45 
5qb2_ligand_aiqm1.xyz
 N   91.475658  247.397522    3.469747
 C   93.698603  246.378772    4.869551
 O   97.561314  255.129998    5.505139
 C   92.806698  245.541593    4.255357
 C   95.354569  252.261478    5.261815
 C   96.240615  253.178313    5.828941
 C   96.618253  254.469961    5.166061
 C   95.670513  250.803238    7.148762
 C   96.557255  251.712377    7.734971
 C   96.837328  252.900565    7.057371
 C   97.197623  251.414314    9.043116
 C   97.348285  252.447087   10.014819
 C   97.938390  252.192064   11.224280
 C   97.656876  250.149798    9.336119
 C   91.705211  246.106688    3.565395
 C   98.275806  249.858945   10.576086
 C   98.419122  250.893067   11.534567
 C   99.285283  248.331274   11.951400
 C   99.477070  249.292138   12.975094
 C   99.041778  250.572808   12.763089
 C   92.360340  248.238775    4.077849
 C   93.491663  247.777282    4.795019
 C   92.134307  249.635742    3.985794
 C   92.999139  250.521120    4.572338
 C   94.141168  250.071678    5.298327
 C   94.364964  248.716274    5.401920
 C   95.064609  251.057520    5.913923
 N   98.711713  248.583298   10.795843
 O   95.833543  254.891751    4.147466
 H   94.556031  245.991157    5.407223
 H   92.927244  244.467520    4.286901
 H   94.916619  252.442530    4.286176
 H   95.436505  249.881335    7.670142
 H   97.538059  253.620812    7.457403
 H   96.980991  253.440831    9.789528
 H   98.045447  252.982400   11.958144
 H   97.569341  249.339705    8.621859
 H   90.990885  245.454680    3.075165
 H   99.624920  247.312935   12.105344
 H   99.959481  249.004376   13.898980
 H   99.166265  251.342443   13.515945
 H   91.262225  249.972683    3.440777
 H   92.812339  251.586510    4.501857
 H   95.227965  248.345484    5.944897
 H   95.083687  254.299859    4.045399
