44 
5qil_ligand_xtb.xyz
 C    6.865813    9.929934    6.076299
 C    5.721990    9.675704    5.326331
 C    2.425509    7.223335    3.414877
 C    7.927793   10.943421    4.338625
 C    6.824247   10.765570    3.493706
 C    5.715676   10.130389    4.000765
 C    0.005263    6.225411    1.913280
 C    4.818952    7.217898    3.344579
 C    4.722917    6.616033    2.105698
 C   10.092583   11.738684    4.736387
 C    4.130539    9.213860    7.269684
 C    2.928321    8.469893    7.426868
 C    2.264239    8.477797    8.645440
 C    2.839324    9.235990    9.645942
 C    4.024142    9.939692    9.395194
 N    4.664624    9.942647    8.248086
 C    4.574919    9.013907    5.925708
 C    3.655806    8.160774    5.336636
 N    2.665476    7.857028    6.244200
 C    3.638428    7.546369    4.021165
 N    3.574552    6.309039    1.523771
 C    2.450745    6.598490    2.173089
 N    7.938870   10.537798    5.597845
 N    1.303065    6.221830    1.483617
 O   -0.344004    6.600283    3.008950
 C   -0.950621    5.704121    0.864043
 O    9.013855   11.560674    3.839016
 H    6.921815    9.630113    7.112527
 H    1.480041    7.465016    3.869432
 H    6.864030   11.136836    2.482868
 H    4.837020    9.994531    3.386675
 H    5.779837    7.423927    3.785859
 H    5.608421    6.353590    1.542540
 H   10.867750   12.255015    4.173958
 H    9.783182   12.335115    5.597329
 H   10.459248   10.774280    5.094925
 H    1.349445    7.923455    8.800310
 H    2.382272    9.292491   10.621533
 H    4.475735   10.534386   10.178272
 H    1.900553    7.228326    6.060175
 H    1.510471    5.838539    0.570382
 H   -1.964823    5.747789    1.249916
 H   -0.882044    6.308201   -0.037978
 H   -0.705976    4.673820    0.614475
