14 
5swg_ligand_xtb.xyz
 C   57.737562   47.471932   73.974675
 C   58.494634   46.589634   73.222545
 C   58.596547   45.260110   73.599612
 O   59.338369   44.393228   72.863166
 C   57.925828   44.820429   74.748697
 O   58.062860   43.489682   75.075131
 C   57.171921   45.707018   75.494597
 C   57.077367   47.034685   75.107439
 H   57.665742   48.504826   73.671013
 H   59.016501   46.912280   72.336162
 H   59.284566   43.525077   73.285857
 H   57.561978   43.306730   75.876741
 H   56.658142   45.356882   76.380200
 H   56.486782   47.720086   75.695365
