14 
5swg_ligand_dft.xyz
 C   -1.906010   -0.657943   -0.000049
 C   -0.718038   -1.388316   -0.000161
 C    0.503012   -0.728814    0.000000
 O    1.661383   -1.435281    0.000310
 C    0.530293    0.672787    0.000117
 O    1.786009    1.224077   -0.000077
 C   -0.650422    1.399484    0.000070
 C   -1.875713    0.731187    0.000036
 H   -2.855961   -1.182886   -0.000041
 H   -0.720019   -2.473307   -0.000298
 H    2.391130   -0.799659   -0.001476
 H    1.720394    2.185358   -0.000230
 H   -0.615430    2.486953   -0.000035
 H   -2.797995    1.302868    0.000138
