19 
5sxk_ligand_xtb.xyz
 C   58.019065   43.316258   74.332433
 C   57.535071   43.356908   75.623674
 C   57.079356   44.543558   76.156363
 C   58.048498   44.478664   73.561552
 C   57.588674   45.693881   74.088780
 C   57.642700   46.920790   73.213607
 N   58.535151   44.409183   72.279717
 C   57.100424   45.719665   75.400150
 N   56.631680   46.867558   75.991076
 H   58.378392   42.390876   73.906223
 H   57.512735   42.456461   76.219827
 H   56.699599   44.578716   77.167425
 H   58.670533   47.130553   72.911360
 H   57.042715   46.775558   72.313214
 H   57.264855   47.804899   73.717341
 H   58.859043   43.531438   71.923933
 H   58.576239   45.216082   71.691660
 H   56.295022   46.825927   76.932675
 H   56.615447   47.746125   75.514891
