38 
5sxn_ligand_ani-2x.xyz
 C   48.468273   71.290528   11.582457
 C   48.488183   69.571823   10.085796
 C   49.116043   68.900546    9.006759
 C   47.379143   67.219532    9.038389
 C   49.093950   72.514094   12.144355
 C   49.086495   74.335932   13.726871
 C   50.881244   74.136430   12.129279
 C   42.974586   69.623711   14.923396
 C   41.834172   68.775315   14.731667
 C   41.939571   68.280802   13.476303
 C   44.923251   70.236617   13.282937
 N   45.550327   69.428526   12.258914
 C   46.711577   69.820519   11.689454
 N   47.309116   70.898536   12.169282
 N   49.074075   70.701860   10.581707
 C   48.569295   67.751224    8.496150
 C   46.749360   67.857300   10.081398
 C   47.288656   69.053557   10.611971
 C   48.494411   73.191501   13.206097
 C   50.279881   74.809630   13.189770
 C   50.291082   72.992118   11.607015
 C   43.680318   69.574520   13.768272
 O   43.062765   68.751430   12.872387
 H   50.033895   69.328678    8.615449
 H   46.960872   66.304772    8.627490
 H   48.614556   74.859639   14.554614
 H   51.813295   74.503701   11.707114
 H   43.223404   70.190094   15.812561
 H   41.044559   68.567556   15.439977
 H   41.330004   67.608513   12.890376
 H   44.698901   71.246607   12.901867
 H   45.616110   70.386034   14.115897
 H   44.924398   68.831663   11.740835
 H   49.056693   67.240320    7.669551
 H   45.843293   67.424590   10.504145
 H   47.563453   72.814667   13.617117
 H   50.742362   75.704457   13.597418
 H   50.749334   72.457758   10.779964
