38 
5sxn_ligand_aiqm1.xyz
 C   48.472484   71.283671   11.570048
 C   48.530407   69.537226   10.104319
 C   49.175084   68.847694    9.049477
 C   47.441122   67.159467    9.090178
 C   49.069919   72.525169   12.124197
 C   48.995439   74.370491   13.684131
 C   50.830139   74.181912   12.130464
 C   43.189719   69.330361   14.967386
 C   41.907315   68.711874   14.783396
 C   41.708351   68.656088   13.443845
 C   44.909481   70.247467   13.224761
 N   45.587581   69.375256   12.278269
 C   46.741742   69.789471   11.684890
 N   47.299536   70.890380   12.145781
 N   49.100148   70.682767   10.586467
 C   48.638016   67.684994    8.553214
 C   46.797809   67.816643   10.110443
 C   47.330368   69.020082   10.626457
 C   48.435600   73.209901   13.165974
 C   50.194037   74.859938   13.168321
 C   50.272963   73.021276   11.610091
 C   43.662824   69.608034   13.725881
 O   42.771394   69.192969   12.777904
 H   50.094213   69.265357    8.661127
 H   47.034770   66.236430    8.698575
 H   48.499854   74.896576   14.490411
 H   51.761202   74.561103   11.728771
 H   43.690508   69.543744   15.895635
 H   41.230719   68.357176   15.542402
 H   40.909537   68.283337   12.829395
 H   44.681293   71.210170   12.751228
 H   45.579612   70.452176   14.059810
 H   44.997971   68.747671   11.761877
 H   49.135657   67.160571    7.747132
 H   45.891002   67.393502   10.526257
 H   47.504895   72.821107   13.558407
 H   50.629651   75.764950   13.573149
 H   50.758538   72.488098   10.804933
