50 
5t28_ligand_ani-2x.xyz
 C   14.424483   -1.289714   19.088260
 C   13.269769   -1.574648   19.809796
 C   15.643426   -1.793908   19.533128
 C   15.707689   -2.562055   20.688594
 C   10.515817  -11.034946   22.945527
 C   11.379723   -8.303390   23.015573
 C    9.693431   -4.379480   26.166176
 C   14.558541   -2.825315   21.443816
 C    9.932284  -10.105655   23.818027
 C   10.357583   -8.780890   23.848304
 C   10.623058   -4.891631   25.265073
 C    9.562214   -6.892005   25.270337
 C    8.572273   -6.374832   26.180833
 C   15.453817   -4.905869   22.686799
 C   15.961927   -3.729757   23.450907
 C   14.638621   -3.637816   22.707816
 C   13.728239   -1.295842   24.384286
 N    8.678037   -5.117213   26.613720
 N   10.542435   -6.145635   24.826442
 N   12.601310   -4.664441   23.832030
 N    9.550081   -8.207934   24.808847
 C   11.519361  -10.579626   22.123055
 C   11.943327   -9.229832   22.159814
 C   13.336916   -2.340563   20.968992
 C   11.740667   -4.115076   24.730651
 C   13.441586   -3.669883   23.591565
 N    8.919677  -10.275691   24.734006
 N   12.001921   -2.863035   25.062010
 N    8.703380   -9.160875   25.306156
 N   13.098259   -2.593564   24.330461
 N    7.506392   -7.093045   26.611455
 H   14.374573   -0.689256   18.184145
 H   12.307731   -1.201071   19.469452
 H   16.554089   -1.591272   18.974182
 H   16.672288   -2.962984   20.988363
 H   10.172821  -12.063530   22.936132
 H   11.707904   -7.272017   23.051004
 H    9.771949   -3.356079   26.524450
 H   15.044366   -5.735064   23.258398
 H   15.944394   -5.177036   21.755734
 H   16.810645   -3.171973   23.064875
 H   15.903458   -3.784135   24.535061
 H   14.769930   -1.379874   24.709687
 H   13.698270   -0.806259   23.404660
 H   13.168798   -0.705181   25.108431
 H   11.999508  -11.265106   21.429584
 H   12.739540   -8.918707   21.489441
 H   12.419876   -2.574242   21.506006
 H    7.486465   -8.091597   26.447237
 H    6.964553   -6.678751   27.352703
