50 
5t28_ligand_xtb.xyz
 C   14.755809   -0.525075   19.638679
 C   13.615828   -1.306223   19.735833
 C   15.846731   -0.801369   20.443905
 C   15.802145   -1.852420   21.343747
 C   10.483610  -11.235959   23.331270
 C   11.478066   -8.548582   23.341200
 C    9.724127   -4.341435   25.979456
 C   14.665395   -2.643612   21.445151
 C    9.875862  -10.245423   24.103132
 C   10.375435   -8.920296   24.101425
 C   10.638437   -4.913807   25.096607
 C    9.578927   -6.916625   25.325025
 C    8.641406   -6.339699   26.228721
 C   14.903208   -5.175546   21.900493
 C   15.771636   -4.513525   22.917952
 C   14.554076   -3.790546   22.392672
 C   13.572372   -1.281022   23.970015
 N    8.749308   -5.042730   26.530706
 N   10.542066   -6.208829   24.785452
 N   12.599445   -4.711648   23.616060
 N    9.535457   -8.258307   24.959348
 C   11.573337  -10.861000   22.583159
 C   12.059248   -9.544386   22.588698
 C   13.571530   -2.357734   20.631826
 C   11.713657   -4.166334   24.484438
 C   13.397364   -3.715194   23.301247
 N    8.800287  -10.284559   24.938963
 N   11.938426   -2.883287   24.713196
 N    8.617201   -9.128705   25.425219
 N   13.009842   -2.599017   23.964324
 N    7.647589   -7.042243   26.794745
 H   14.792772    0.295862   18.938320
 H   12.760585   -1.096583   19.110488
 H   16.737434   -0.194228   20.374583
 H   16.656974   -2.047366   21.974511
 H   10.102393  -12.244028   23.333544
 H   11.840000   -7.533913   23.354162
 H    9.782457   -3.296615   26.244887
 H   14.258283   -5.978450   22.219122
 H   15.274012   -5.261568   20.890358
 H   16.746606   -4.168338   22.610685
 H   15.733265   -4.876826   23.933955
 H   14.652844   -1.333703   24.104684
 H   13.355324   -0.760513   23.034788
 H   13.121208   -0.738795   24.798840
 H   12.075344  -11.595350   21.970432
 H   12.919301   -9.309128   21.979289
 H   12.685513   -2.972062   20.707772
 H    7.558409   -8.026232   26.575185
 H    7.026849   -6.565329   27.423731
