50 
5t28_ligand_aiqm1.xyz
 C   14.719179   -0.480959   19.628008
 C   13.589023   -1.288572   19.729246
 C   15.823844   -0.741249   20.431707
 C   15.803500   -1.803473   21.335345
 C   10.473399  -11.320900   23.432112
 C   11.387027   -8.602513   23.219473
 C    9.720475   -4.341867   25.929650
 C   14.674210   -2.623612   21.438754
 C    9.903328  -10.289239   24.190511
 C   10.343140   -8.971788   24.085014
 C   10.641743   -4.932055   25.080578
 C    9.562259   -6.917669   25.295379
 C    8.582944   -6.320060   26.136251
 C   15.021363   -5.150186   21.954745
 C   15.867603   -4.408914   22.942100
 C   14.602682   -3.766751   22.407787
 C   13.620704   -1.283230   24.033259
 N    8.701141   -5.031849   26.451386
 N   10.555156   -6.242386   24.778095
 N   12.630699   -4.734396   23.607990
 N    9.539674   -8.287941   24.966038
 C   11.494658  -10.967561   22.576587
 C   11.940757   -9.627228   22.478243
 C   13.567294   -2.353153   20.626478
 C   11.746958   -4.183322   24.480089
 C   13.441651   -3.718046   23.326501
 N    8.887438  -10.345634   25.114169
 N   11.952791   -2.901310   24.753214
 N    8.684954   -9.162201   25.566605
 N   13.044899   -2.618932   24.011090
 N    7.478860   -6.976041   26.597976
 H   14.737479    0.343975   18.929878
 H   12.724739   -1.090320   19.109580
 H   16.703854   -0.116226   20.360494
 H   16.666982   -1.986227   21.963149
 H   10.120527  -12.337899   23.522865
 H   11.733613   -7.585068   23.151582
 H    9.801275   -3.298014   26.191853
 H   14.413341   -5.967874   22.318510
 H   15.390942   -5.238010   20.943396
 H   16.810368   -4.004735   22.598286
 H   15.857513   -4.740314   23.971878
 H   14.698176   -1.349122   24.168728
 H   13.404545   -0.757755   23.105414
 H   13.170287   -0.759097   24.869132
 H   11.969743  -11.724838   21.967754
 H   12.750021   -9.398442   21.796317
 H   12.688493   -2.980591   20.703786
 H    7.492058   -7.983391   26.593367
 H    6.980091   -6.491315   27.321652
