49 
5t2g_ligand_ani-2x.xyz
 C   15.778722   -3.852598   23.296026
 C   14.464786   -3.741575   22.538634
 C   15.284476   -5.005812   22.489097
 N    8.491112   -5.318561   26.385412
 C    8.386691   -6.570278   25.952861
 C    9.385811   -7.140019   25.108654
 C    9.395102   -8.550513   24.726808
 C   11.556970   -4.330864   24.510764
 C   13.256742   -3.812808   23.404972
 C   13.163151   -2.440276   20.806610
 C   13.095161   -1.643141   19.668760
 C   14.255455   -1.297644   18.983469
 C   15.480807   -1.773435   19.441811
 C   10.126110   -9.042009   23.676223
 N    9.932984  -10.383572   23.666281
 N    9.132562  -10.807482   24.670589
 C    8.804531   -9.707087   25.311065
 N   10.166597  -12.567192   22.948206
 C   10.448014   -5.128973   25.040536
 C    9.518162   -4.599259   25.938457
 N   10.368304   -6.393949   24.629552
 N    7.308893   -7.315905   26.397520
 N   12.450083   -4.837753   23.626202
 N   12.866216   -2.754734   24.146361
 N   11.769773   -3.070540   24.857201
 C   13.451970   -1.437632   24.223998
 C   14.390152   -2.895532   21.296615
 C   15.545994   -2.573179   20.575640
 C   10.516423  -11.285362   22.727981
 O   11.239746  -10.869492   21.850117
 H   15.707648   -3.940358   24.377007
 H   16.630610   -3.280426   22.939099
 H   14.864831   -5.854359   23.025012
 H   15.788376   -5.243977   21.556137
 H   12.243652   -2.723510   21.315235
 H   12.128629   -1.292842   19.316634
 H   14.205081   -0.672579   18.096218
 H   16.396064   -1.523940   18.910033
 H   10.762075   -8.539103   22.958359
 H    8.195461   -9.737725   26.204818
 H   10.542617  -13.271123   22.335243
 H    9.561841  -12.807239   23.719443
 H    9.603724   -3.572176   26.287154
 H    6.638179   -6.731018   26.878630
 H    6.869664   -7.897569   25.694631
 H   14.495887   -1.493727   24.548246
 H   13.405820   -0.931207   23.253644
 H   12.872745   -0.880313   24.959032
 H   16.516895   -2.951432   20.884305
