49 
5t2g_ligand_aiqm1.xyz
 C   15.741439   -4.442321   22.909995
 C   14.470379   -3.867538   22.315565
 C   14.969758   -5.236034   21.903206
 N    8.476860   -5.267513   26.179715
 C    8.431221   -6.569231   25.915998
 C    9.427287   -7.197759   25.123537
 C    9.428940   -8.639753   24.834052
 C   11.556683   -4.388249   24.282078
 C   13.272132   -3.859834   23.186795
 C   13.448561   -2.529760   20.468982
 C   13.458878   -1.477414   19.557264
 C   14.552058   -0.616856   19.493192
 C   15.631246   -0.812493   20.348220
 C   10.048890   -9.242537   23.760703
 N    9.853023  -10.578292   23.898325
 N    9.154833  -10.893157   25.013992
 C    8.894106   -9.724655   25.583593
 N    9.983659  -12.826195   23.413902
 C   10.459508   -5.171607   24.863384
 C    9.495798   -4.572272   25.666018
 N   10.413071   -6.485501   24.593976
 N    7.393872   -7.285371   26.497217
 N   12.498742   -4.907873   23.454686
 N   12.797407   -2.769878   23.836530
 N   11.692555   -3.092381   24.539640
 C   13.309667   -1.409105   23.859688
 C   14.529803   -2.735279   21.333281
 C   15.621775   -1.862449   21.266224
 C   10.323944  -11.588836   23.010653
 O   10.947117  -11.300232   22.016265
 H   15.705778   -4.757787   23.944078
 H   16.677471   -3.999205   22.596690
 H   14.382955   -6.073316   22.255647
 H   15.383739   -5.321728   20.908644
 H   12.599430   -3.199366   20.516844
 H   12.614794   -1.330226   18.896621
 H   14.561811    0.198575   18.783624
 H   16.482762   -0.146518   20.305522
 H   10.609684   -8.841015   22.934328
 H    8.357359   -9.689432   26.518132
 H   10.309966  -13.603229   22.871245
 H    9.494766  -12.946349   24.283244
 H    9.541146   -3.517299   25.889735
 H    6.676683   -6.668629   26.846739
 H    7.022950   -8.025079   25.921356
 H   14.382279   -1.422949   24.041073
 H   13.109473   -0.908442   22.914628
 H   12.800440   -0.894046   24.667066
 H   16.464604   -1.995383   21.933407
