49 
5t2i_ligand_ani-2x.xyz
 C   14.408150   -1.426192   19.087202
 C   13.238535   -1.726388   19.777970
 C   15.625974   -1.878907   19.587083
 C    9.582207   -4.316239   26.175259
 C   10.361086   -8.760851   24.216496
 C   10.080947  -10.098182   24.123985
 C   14.509089   -2.885786   21.491788
 C   10.527636   -4.883459   25.320469
 C    9.480674   -6.881233   25.477547
 C    8.479571   -6.310998   26.332874
 C   11.636310   -4.113333   24.758050
 C   13.347957   -3.671042   23.637945
 C   10.821472  -11.017864   23.222880
 C   14.565500   -3.657577   22.782206
 C   13.541106   -1.248752   24.307234
 N   10.464825   -6.166913   24.975915
 N   11.847950   -2.834253   25.025097
 N    9.487042   -8.229947   25.106692
 N   10.540085  -12.350647   23.348175
 C   13.289872   -2.455488   20.961426
 C   15.674536   -2.610868   20.766607
 C    8.995472  -10.289954   25.011460
 C   15.378125   -4.927118   22.814897
 C   15.870795   -3.731897   23.559028
 N    8.569363   -5.024214   26.670502
 N    8.636793   -9.169979   25.601567
 N   12.537256   -4.678937   23.915867
 N   12.952403   -2.566874   24.306285
 N    7.418466   -7.012110   26.799642
 O   11.616245  -10.592984   22.401456
 H   14.370763   -0.854187   18.164244
 H   12.277681   -1.393705   19.394618
 H   16.548413   -1.664655   19.052352
 H    9.647012   -3.268269   26.457142
 H   11.112800   -8.164287   23.715341
 H   14.582832   -1.287399   24.640961
 H   13.502356   -0.801817   23.307743
 H   12.959087   -0.646316   25.003443
 H   11.137538  -12.975543   22.826728
 H   10.110625  -12.711068   24.185298
 H   12.363275   -2.704589   21.474979
 H   16.640160   -2.974070   21.108144
 H    8.443937  -11.195683   25.218780
 H   15.890428   -5.221400   21.902784
 H   14.947391   -5.741102   23.394067
 H   15.788343   -3.756243   24.642454
 H   16.729806   -3.186046   23.178737
 H    7.414313   -8.019594   26.706003
 H    6.864598   -6.557342   27.508081
