49 
5t2l_ligand_xtb.xyz
 C   46.505088   -0.312488   19.527954
 C   45.477383   -1.240950   19.559609
 C   47.540028   -0.404383   20.441861
 C   41.418287   -4.515629   25.511408
 C   42.702575   -9.004971   23.902636
 C   46.527496   -2.355565   21.421733
 C   42.472979   -5.027681   24.754468
 C   41.316752  -10.562734   24.616893
 C   41.604448   -7.118250   24.993255
 C   40.532931   -6.602150   25.772198
 C   43.509969   -4.174620   24.217192
 C   45.235184   -3.533359   23.193367
 C   40.649531  -11.854714   24.871231
 C   46.480886   -3.472154   22.410052
 C   45.021791   -1.080800   23.777224
 N   40.884464   -9.410327   25.122245
 N   43.540803   -2.866376   24.416160
 N   41.727443   -8.474598   24.684502
 N   39.614337  -11.780099   25.742431
 C   45.489130   -2.254835   20.498910
 C   47.551041   -1.417706   21.385007
 C   42.470109  -10.352071   23.833276
 C   47.073206   -4.807925   22.026899
 C   47.725238   -3.990148   23.091641
 N   40.469531   -5.289112   26.006381
 N   42.541590   -6.337308   24.504873
 N   44.544902   -4.618663   23.465628
 N   44.638103   -2.461473   23.768942
 N   39.579381   -7.389929   26.299525
 O   40.995067  -12.892281   24.345655
 H   46.498405    0.479305   18.793898
 H   44.666515   -1.175837   18.849184
 H   48.342962    0.317949   20.423807
 H   41.342059   -3.458480   25.716040
 H   43.454680   -8.373555   23.478116
 H   46.080341   -0.986487   24.019846
 H   44.837369   -0.619476   22.804682
 H   44.421412   -0.580539   24.534693
 H   39.115025  -12.619386   25.982172
 H   39.377359  -10.910381   26.182788
 H   44.691624   -2.983876   20.523960
 H   48.359415   -1.468170   22.099494
 H   43.023285  -11.103212   23.310905
 H   47.558869   -4.874773   21.065221
 H   46.516997   -5.683973   22.318676
 H   47.629846   -4.318077   24.115887
 H   48.668950   -3.517751   22.867308
 H   39.599752   -8.371396   26.055025
 H   38.812764   -6.954884   26.780043
