49 
5t2l_ligand_aiqm1.xyz
 C   46.468676   -0.315457   19.503627
 C   45.441900   -1.255625   19.541493
 C   47.516211   -0.405247   20.413928
 C   41.414862   -4.501674   25.529905
 C   42.609933   -8.972284   23.800191
 C   46.516698   -2.381230   21.401784
 C   42.443155   -5.020923   24.757050
 C   41.353886  -10.568751   24.633854
 C   41.520560   -7.090902   24.938881
 C   40.444596   -6.567894   25.698015
 C   43.518323   -4.176897   24.228418
 C   45.254151   -3.554813   23.219680
 C   40.761774  -11.893271   24.959144
 C   46.495246   -3.489918   22.412618
 C   45.096426   -1.097477   23.845695
 N   40.868831   -9.435190   25.149496
 N   43.556482   -2.872613   24.472167
 N   41.650283   -8.465965   24.623212
 N   39.709937  -11.847475   25.821764
 C   45.466490   -2.281778   20.482317
 C   47.541346   -1.428850   21.360923
 C   42.447025  -10.332679   23.779658
 C   47.123783   -4.822813   22.066453
 C   47.773802   -3.944602   23.088947
 N   40.426832   -5.270297   25.994854
 N   42.486064   -6.333686   24.476512
 N   44.535708   -4.648578   23.463320
 N   44.675676   -2.489866   23.824216
 N   39.371756   -7.314165   26.096401
 O   41.205232  -12.927816   24.493186
 H   46.451666    0.479619   18.771612
 H   44.622579   -1.191034   18.838027
 H   48.315895    0.322897   20.391863
 H   41.386649   -3.451206   25.775364
 H   43.308538   -8.305118   23.326726
 H   46.158356   -1.038285   24.073943
 H   44.906529   -0.625840   22.884000
 H   44.519008   -0.604626   24.620340
 H   39.223728  -12.704870   26.007462
 H   39.315798  -10.970027   26.103384
 H   44.668888   -3.013103   20.509550
 H   48.358196   -1.478918   22.070395
 H   43.015716  -11.066359   23.240677
 H   47.596337   -4.899030   21.097825
 H   46.589208   -5.697229   22.412024
 H   47.707796   -4.236825   24.128452
 H   48.687123   -3.435256   22.812329
 H   39.502813   -8.311001   26.143534
 H   38.806827   -6.871354   26.799684
