52 
5t2m_ligand_aiqm1.xyz
 C   13.509572    1.172393  -23.856512
 C   13.392245    3.593130  -23.090538
 N   11.844081    2.829866  -24.481861
 C   10.553322    4.884071  -24.736319
 C    9.581887    4.280538  -25.528160
 C    8.489775    6.269804  -25.735001
 C    9.498518    6.906550  -24.964818
 C    9.509368    8.364520  -24.661183
 C    9.166728    9.325951  -25.620551
 C    9.210430   10.680727  -25.307634
 C    9.598975   11.097476  -24.033628
 C    9.663176   12.539932  -23.637244
 C   15.840109    4.243343  -22.778423
 C   15.798330    1.599879  -21.235575
 C   13.641499    1.077326  -19.555667
 C   13.600543    2.163470  -20.425942
 N   12.954560    2.514606  -23.783892
 N   12.588313    4.626683  -23.323415
 C   11.668229    4.110219  -24.176720
 N    8.544452    4.967570  -26.008599
 N   10.495584    6.192992  -24.456071
 C    9.973464   10.142507  -23.085643
 C    9.930949    8.793087  -23.394493
 O   10.301730   12.919999  -22.674062
 N    8.972286   13.412375  -24.437765
 N    7.417949    6.957706  -26.277098
 C   14.586018    3.605232  -22.213227
 C   15.039227    4.972259  -21.745819
 C   14.678303    2.438173  -21.275238
 C   15.838411    0.515879  -20.358898
 C   14.762376    0.251524  -19.518508
 H   14.581956    1.226853  -24.031230
 H   13.321170    0.629590  -22.932508
 H   13.020469    0.673139  -24.685969
 H    9.636911    3.228997  -25.766378
 H    8.884961    9.014914  -26.617468
 H    8.987224   11.413748  -26.074072
 H   15.798261    4.597737  -23.799547
 H   16.788751    3.818681  -22.477694
 H   16.639369    1.786474  -21.892027
 H   12.799675    0.876645  -18.906284
 H   12.729720    2.805966  -20.452943
 H   10.309874   10.485391  -22.117199
 H   10.250876    8.054504  -22.671239
 H    8.899041   14.350003  -24.082388
 H    8.209252   13.079847  -24.998036
 H    7.072614    7.729165  -25.727912
 H    6.694584    6.334910  -26.599962
 H   14.427509    5.803330  -22.069430
 H   15.446482    5.032665  -20.746588
 H   16.711369   -0.122733  -20.337000
 H   14.795922   -0.590115  -18.841023
