52 
5t2m_ligand_xtb.xyz
 C   13.488279    1.180066  -23.830872
 C   13.377749    3.594136  -23.080125
 N   11.867877    2.837389  -24.479757
 C   10.592606    4.891372  -24.773751
 C    9.636801    4.303581  -25.605328
 C    8.502712    6.275435  -25.724818
 C    9.538592    6.911502  -24.992256
 C    9.570518    8.349089  -24.701221
 C    9.117954    9.302103  -25.613285
 C    9.163184   10.647927  -25.302107
 C    9.664078   11.071046  -24.074052
 C    9.741592   12.505713  -23.677206
 C   15.783628    4.311473  -22.740732
 C   15.776331    1.622290  -21.214286
 C   13.598289    1.085552  -19.592387
 C   13.566708    2.159163  -20.462222
 N   12.951348    2.507212  -23.768916
 N   12.592868    4.615075  -23.341993
 C   11.676146    4.117940  -24.204819
 N    8.594944    4.983824  -26.043520
 N   10.531735    6.192333  -24.499917
 C   10.160011   10.120882  -23.182691
 C   10.113667    8.778239  -23.489265
 O   10.561907   12.927206  -22.888923
 N    8.824246   13.323849  -24.255766
 N    7.381738    6.920044  -26.163628
 C   14.558521    3.613006  -22.199963
 C   14.961888    4.975329  -21.686455
 C   14.656564    2.440908  -21.282617
 C   15.808357    0.548971  -20.340558
 C   14.721505    0.277130  -19.528413
 H   14.566550    1.218030  -23.986699
 H   13.281377    0.632355  -22.908855
 H   13.010221    0.673796  -24.667367
 H    9.706802    3.267086  -25.899755
 H    8.769003    8.991985  -26.587357
 H    8.838510   11.367055  -26.041021
 H   15.729619    4.699218  -23.746901
 H   16.755575    3.930725  -22.467560
 H   16.627859    1.813401  -21.850590
 H   12.746308    0.879812  -18.961191
 H   12.694149    2.795024  -20.511916
 H   10.580993   10.465102  -22.250097
 H   10.501781    8.036302  -22.809411
 H    8.820575   14.294076  -23.988875
 H    8.070905   12.976429  -24.819676
 H    7.094763    7.751139  -25.674048
 H    6.650361    6.308459  -26.491386
 H   14.332544    5.803254  -21.970441
 H   15.361360    5.026807  -20.684919
 H   16.686141   -0.079143  -20.297090
 H   14.748660   -0.561199  -18.848396
