21 
5t4u_ligand_dft.xyz
 C   -1.484785    2.071534   -0.000139
 N   -1.038066    0.686508    0.000107
 C    0.321754    0.399990   -0.000027
 C    1.286683    1.422054   -0.000066
 C    2.635137    1.107668   -0.000019
 C    3.066706   -0.221955    0.000096
 C    2.124678   -1.232588    0.000103
 C    0.752386   -0.944581    0.000041
 C   -0.245539   -1.982083   -0.000139
 C   -1.555832   -1.680871   -0.000189
 C   -2.034325   -0.300394    0.000053
 O   -3.222127   -0.008638    0.000277
 H   -1.125225    2.591705   -0.893474
 H   -2.572763    2.058015   -0.000252
 H   -1.125326    2.592012    0.893049
 H    0.985973    2.462368   -0.000134
 H    3.363563    1.912939   -0.000094
 H    4.126068   -0.455777    0.000228
 H    2.435308   -2.274219    0.000167
 H    0.085302   -3.017844   -0.000289
 H   -2.330590   -2.438298   -0.000455
