71 
5t54_ligand_xtb.xyz
 O   -1.021590   -1.343448   -0.128473
 C   -1.875919   -0.413785   -0.765408
 O   -1.243086    0.820164   -0.843962
 C   -3.154083   -0.271732    0.076755
 N   -2.910184    0.631980    1.179353
 C   -3.578985   -1.673766    0.603079
 O   -4.969846   -1.819470    0.576213
 C   -2.992524   -2.798278   -0.264876
 O   -3.560108   -2.741831   -1.555493
 C   -1.454070   -2.687484   -0.295110
 C   -0.806825   -3.333739   -1.538653
 O   -1.142924   -2.730799   -2.755276
 C   -3.851484    0.918021    2.101425
 O   -4.987419    0.478527    2.034608
 C   -3.369186    1.832661    3.197672
 C    2.403538    1.499887   -1.417115
 C    1.090282    1.334373   -0.628905
 C   -0.007541    0.827066   -1.566555
 C   -0.138262    1.781436   -2.762153
 C    1.241372    1.958576   -3.424610
 C    1.216028    2.989474   -4.564505
 O    2.835943    0.235634   -1.822167
 O    1.193476    0.409306    0.420975
 O   -0.657320    3.018443   -2.332768
 O    2.228328    2.370753   -2.495319
 O    1.004248    4.299702   -4.141491
 C    1.581716    0.900675    1.676806
 C    1.077751   -0.153556    2.681021
 C    1.887731   -1.437972    2.478831
 C    3.382753   -1.122258    2.620267
 C    3.765757   -0.012377    1.627650
 C    5.205363    0.436223    1.824159
 O   -0.295547   -0.394163    2.514668
 O    1.540005   -2.403697    3.448420
 O    3.675822   -0.726975    3.934993
 O    2.943794    1.142272    1.786750
 H   -2.126515   -0.781576   -1.772517
 H   -3.968840    0.127141   -0.541769
 H   -1.956773    0.930493    1.316487
 H   -3.186254   -1.785445    1.626065
 H   -5.335201   -1.078679    1.104498
 H   -3.261495   -3.761201    0.195244
 H   -4.509110   -2.606764   -1.416953
 H   -1.060088   -3.209425    0.584454
 H   -1.069864   -4.400809   -1.537913
 H    0.277374   -3.232683   -1.443639
 H   -2.097911   -2.833900   -2.877344
 H   -2.477352    1.413260    3.657535
 H   -3.123355    2.808055    2.783869
 H   -4.149744    1.947497    3.943825
 H    3.152401    1.989157   -0.775289
 H    0.804661    2.324917   -0.244522
 H    0.249434   -0.183336   -1.891377
 H   -0.821950    1.334563   -3.503837
 H    1.515859    0.977259   -3.843907
 H    2.184970    2.981624   -5.070315
 H    0.439297    2.672407   -5.280083
 H    3.664673    0.335165   -2.307351
 H   -1.346652    2.826773   -1.682885
 H    0.330039    4.281369   -3.448003
 H    1.103832    1.875544    1.871545
 H    1.220771    0.217945    3.700901
 H    1.683895   -1.819697    1.466195
 H    3.956928   -2.028539    2.365543
 H    3.614417   -0.411897    0.613249
 H    5.335548    0.755431    2.853267
 H    5.881137   -0.386608    1.612081
 H    5.423475    1.268615    1.162113
 H   -0.427098   -0.660040    1.583315
 H    0.585324   -2.342518    3.582297
 H    3.237364   -1.363743    4.515613
