71 
5t54_ligand_ani-2x.xyz
 O   -1.033241   -1.470785   -0.152453
 C   -1.816057   -0.395268   -0.660311
 O   -1.049332    0.774405   -0.661340
 C   -3.074170   -0.244674    0.188462
 N   -2.829458    0.516569    1.395856
 C   -3.667783   -1.637984    0.519079
 O   -5.071980   -1.619053    0.364814
 C   -3.149613   -2.722177   -0.422392
 O   -3.655375   -2.467296   -1.725511
 C   -1.611790   -2.756451   -0.419395
 C   -1.001055   -3.342631   -1.690475
 O   -1.181999   -2.543638   -2.838967
 C   -3.879148    1.005059    2.100264
 O   -5.039391    0.808428    1.736531
 C   -3.522957    1.798889    3.336365
 C    2.519692    1.226712   -1.648381
 C    1.290577    1.159137   -0.742812
 C    0.070034    0.721437   -1.543954
 C   -0.142612    1.711975   -2.692647
 C    1.148042    1.829676   -3.510239
 C    1.069140    2.895030   -4.597532
 O    2.791375   -0.061545   -2.131251
 O    1.474974    0.242161    0.316142
 O   -0.490304    2.984352   -2.179288
 O    2.278896    2.137908   -2.693639
 O    1.012500    4.215924   -4.127306
 C    1.612920    0.802324    1.596778
 C    1.150277   -0.226410    2.624026
 C    2.090106   -1.426037    2.578825
 C    3.521811   -0.968110    2.819137
 C    3.881810    0.138185    1.825959
 C    5.232207    0.760091    2.110136
 O   -0.192567   -0.625485    2.416342
 O    1.745834   -2.339781    3.602916
 O    3.655015   -0.483048    4.134814
 O    2.923015    1.206578    1.851327
 H   -2.113577   -0.618057   -1.688628
 H   -3.829948    0.294971   -0.393868
 H   -1.886145    0.578943    1.765766
 H   -3.390493   -1.901494    1.549090
 H   -5.391431   -0.817858    0.824429
 H   -3.518913   -3.699185   -0.079694
 H   -4.568266   -2.163311   -1.588016
 H   -1.309161   -3.391406    0.425953
 H   -1.400363   -4.357011   -1.841537
 H    0.079004   -3.422366   -1.537056
 H   -2.142631   -2.462246   -2.950454
 H   -2.870014    2.641616    3.085168
 H   -4.440708    2.173467    3.790163
 H   -2.994302    1.170455    4.062686
 H    3.380330    1.622469   -1.092034
 H    1.102127    2.167995   -0.354096
 H    0.213873   -0.290454   -1.943658
 H   -0.941107    1.348730   -3.362569
 H    1.310341    0.856102   -4.003986
 H    1.973474    2.817328   -5.208490
 H    0.205623    2.656889   -5.244411
 H    3.558238    0.006484   -2.715958
 H   -1.169410    2.840805   -1.503915
 H    0.354026    4.230301   -3.416241
 H    0.983432    1.702874    1.667400
 H    1.211260    0.221268    3.619690
 H    2.020295   -1.908328    1.589364
 H    4.203722   -1.820471    2.649288
 H    3.877336   -0.315743    0.821455
 H    5.230419    1.229020    3.097353
 H    6.021954    0.000513    2.085744
 H    5.449988    1.518511    1.353413
 H   -0.242940   -1.020813    1.524532
 H    0.776774   -2.365105    3.619529
 H    3.198001   -1.129160    4.694912
