40 
5t68_ligand_dft.xyz
 C   24.933367   -5.199759   -7.623184
 C   24.528058   -3.908832   -7.864096
 C   24.161154    2.775239  -10.345866
 C   26.482410   -3.437041   -9.253035
 C   24.989880    3.416942  -11.203229
 C   26.134454   -5.647858   -8.196012
 C   24.725249    1.459213  -10.178045
 C   26.874235   -4.757279   -8.992565
 C   25.291298   -3.018869   -8.676760
 C   25.860266    1.450505  -10.973265
 C   26.890074   -6.863903   -8.198092
 C   26.651129    0.299139  -11.027994
 C   25.146630   -0.647615   -9.565103
 C   29.333391   -1.313000  -13.021884
 C   28.248606   -2.179441  -12.444639
 C   28.652146   -0.913597  -11.743128
 C   26.564569   -8.147990   -7.507853
 N   24.329200    0.404394   -9.449084
 N   27.981986   -6.731753   -8.921232
 N   26.271467   -0.747363  -10.296980
 N   27.966031   -5.460607   -9.401269
 N   24.751343   -1.738884   -8.826151
 N   27.766337    0.207100  -11.802154
 O   26.035435    2.645770  -11.608689
 H   24.331213   -5.855568   -7.001105
 H   23.599108   -3.548748   -7.429053
 H   23.267406    3.170264   -9.887282
 H   27.062225   -2.767006   -9.870885
 H   24.972038    4.413567  -11.617885
 H   30.362445   -1.651859  -12.961252
 H   29.095469   -0.740042  -13.913155
 H   27.279995   -2.179094  -12.931757
 H   28.524685   -3.122633  -11.984208
 H   29.212990   -1.018155  -10.815434
 H   27.347523   -8.884262   -7.703091
 H   26.483371   -8.004071   -6.424469
 H   25.609042   -8.553782   -7.859049
 H   23.893862   -1.555317   -8.326273
 H   28.120684    1.068891  -12.189118
 H   28.735230   -5.147694   -9.967677
