49 
5tcy_ligand_xtb.xyz
 C   -7.107346    7.672364    1.186331
 C   -7.956399    6.777145    1.820773
 C   -9.216344    7.209764    2.254264
 C   -9.618317    8.523394    2.029035
 C   -8.738994    9.411545    1.413789
 C   -7.495308    8.986673    0.993370
 C  -10.959116    9.036215    2.441926
 N  -11.982004    8.155585    2.232136
 O  -11.128757   10.127529    2.942653
 C  -13.365372    8.559078    2.411623
 C  -14.238060    8.054758    1.266259
 C  -14.452980    6.543153    1.346728
 N  -14.057712    3.755354    0.443086
 C  -13.278117    3.249319   -0.537549
 C  -11.967719    2.693225   -0.070869
 O  -13.624703    3.187079   -1.701159
 C  -11.217465    3.255487    0.962967
 C   -9.995566    2.668154    1.315338
 C   -9.528029    1.553015    0.646366
 C  -10.266981    1.010174   -0.392720
 C  -11.470506    1.581587   -0.746841
 O  -11.640749    4.370558    1.625622
 O   -9.299749    3.250824    2.353797
 C  -15.078746    5.974302    0.075117
 O   -9.992941    6.282037    2.924846
 C  -15.288701    4.458433    0.171147
 O   -7.558108    5.497499    2.016141
 H   -6.141829    7.317344    0.864284
 H   -9.059647   10.431810    1.275118
 H   -6.821477    9.677826    0.512233
 H  -11.832756    7.389023    1.591491
 H  -13.377620    9.651300    2.470943
 H  -13.736325    8.164134    3.365272
 H  -13.763007    8.311741    0.316431
 H  -15.201447    8.565157    1.301873
 H  -15.094175    6.317454    2.202605
 H  -13.493301    6.049648    1.510548
 H  -13.668697    3.845721    1.366930
 H   -8.582574    1.115897    0.937114
 H   -9.895560    0.145529   -0.919266
 H  -12.059133    1.185516   -1.559170
 H  -10.914074    4.688307    2.191984
 H   -8.486809    2.753818    2.500551
 H  -14.425504    6.179957   -0.774945
 H  -16.041383    6.451809   -0.114691
 H  -10.742455    6.740026    3.329720
 H  -16.004903    4.225517    0.964368
 H  -15.668512    4.080363   -0.780504
 H   -8.291927    4.998852    2.412438
