49 
5tcy_ligand_aiqm1.xyz
 C   -7.728183    5.927966    0.716859
 C   -8.174088    6.132426    2.012823
 C   -9.315121    6.895594    2.262088
 C  -10.007671    7.492727    1.204281
 C   -9.530688    7.305327   -0.097629
 C   -8.411933    6.526389   -0.342226
 C  -11.238219    8.347486    1.357143
 N  -12.032497    8.073972    2.436261
 O  -11.484216    9.237373    0.561556
 C  -13.376094    8.659332    2.472055
 C  -14.321811    8.076831    1.422813
 C  -14.489803    6.567120    1.531803
 N  -13.944440    3.826067    0.619235
 C  -12.972140    3.917455   -0.315256
 C  -11.572034    3.583547    0.128030
 O  -13.194708    4.214624   -1.481633
 C  -11.103768    3.650454    1.441457
 C   -9.772843    3.335549    1.738349
 C   -8.895971    2.960065    0.734760
 C   -9.350489    2.907235   -0.586927
 C  -10.667618    3.221920   -0.876671
 O  -11.910694    4.043736    2.481209
 O   -9.437378    3.392432    3.070608
 C  -15.204252    5.958228    0.331863
 O   -9.648383    7.010326    3.594423
 C  -15.246064    4.427240    0.364106
 O   -7.532835    5.508357    3.056800
 H   -6.857760    5.306648    0.548578
 H  -10.060925    7.790265   -0.903413
 H   -8.064170    6.385311   -1.355422
 H  -11.927800    7.158667    2.850003
 H  -13.262347    9.730338    2.312776
 H  -13.773194    8.504249    3.476755
 H  -13.934309    8.327114    0.432938
 H  -15.289926    8.573319    1.519455
 H  -15.027195    6.320002    2.455092
 H  -13.501762    6.106089    1.615525
 H  -13.655954    3.704690    1.575556
 H   -7.864039    2.737446    0.984835
 H   -8.672864    2.620610   -1.378928
 H  -11.038966    3.200871   -1.890914
 H  -11.367521    4.007237    3.277658
 H   -8.631080    3.916419    3.181368
 H  -14.689232    6.267681   -0.580730
 H  -16.228286    6.334567    0.265461
 H  -10.109361    7.842819    3.744784
 H  -15.926511    4.079794    1.142567
 H  -15.603837    4.051680   -0.593533
 H   -7.776918    5.965407    3.870907
