49 
5tcy_ligand_ani-2x.xyz
 C   -7.059219    7.305947    2.389125
 C   -8.163997    6.641061    2.884440
 C   -9.454730    7.086910    2.579750
 C   -9.660537    8.203194    1.769964
 C   -8.530291    8.846875    1.252489
 C   -7.250129    8.413374    1.561817
 C  -11.003209    8.778351    1.399265
 N  -12.064713    8.372863    2.139823
 O  -11.105421    9.595841    0.492063
 C  -13.402960    8.845562    1.841221
 C  -14.159713    7.959424    0.850969
 C  -14.345853    6.524243    1.342820
 N  -14.129355    3.548506    1.011687
 C  -13.568718    2.957043   -0.076107
 C  -12.076765    2.735724   -0.033001
 O  -14.221601    2.626861   -1.057705
 C  -11.195965    3.370533    0.852725
 C   -9.816339    3.242058    0.668826
 C   -9.305191    2.422836   -0.319521
 C  -10.177972    1.734217   -1.161324
 C  -11.546154    1.909500   -1.027953
 O  -11.640267    4.109564    1.909034
 O   -9.007647    3.968868    1.534876
 C  -15.229130    5.687423    0.413302
 O  -10.486769    6.326824    3.105343
 C  -15.398418    4.240267    0.889477
 O   -8.057986    5.528751    3.692427
 H   -6.067753    6.939547    2.640634
 H   -8.695987    9.701905    0.603796
 H   -6.387522    8.934747    1.156952
 H  -11.934657    7.624275    2.804802
 H  -13.303065    9.852104    1.429195
 H  -13.957809    8.918392    2.784257
 H  -13.618820    7.959065   -0.104531
 H  -15.139980    8.418068    0.659593
 H  -14.785829    6.532730    2.352614
 H  -13.360415    6.047685    1.443338
 H  -13.500885    3.832280    1.750462
 H   -8.228359    2.314061   -0.430455
 H   -9.781282    1.085084   -1.936286
 H  -12.247979    1.424482   -1.699769
 H  -10.962540    4.768679    2.146268
 H   -8.300993    4.367100    1.002193
 H  -14.795615    5.674419   -0.595706
 H  -16.221324    6.150996    0.323871
 H  -10.123594    5.927025    3.915197
 H  -15.895733    4.212245    1.866068
 H  -16.007274    3.674593    0.180674
 H   -8.451436    4.788901    3.190502
