67 
5teh_ligand_ani-2x.xyz
 O   -1.223264    3.085514    0.358266
 C   -1.636174    2.092901   -0.217175
 N   -2.667794    2.109762   -1.094765
 C   -3.447137    3.315389   -1.332489
 C   -4.449230    3.557161   -0.203884
 C   -4.133484    3.192612   -2.686031
 C   -1.001632    0.702689   -0.034811
 C   -0.310422    0.692454    1.260433
 N    0.177990    0.709596    2.308989
 C   -0.087470    0.364993   -1.254310
 C    0.186560   -1.102412   -1.419421
 N   -0.515601   -1.884426   -2.316950
 C   -1.516675   -1.497162   -3.297496
 C   -2.945048   -1.656507   -2.799345
 O   -3.228872   -0.656483   -1.842577
 C   -4.501178   -0.814778   -1.250986
 C   -0.181816   -3.196765   -2.117222
 N   -0.699780   -4.235109   -2.781717
 C   -0.182943   -5.396246   -2.400824
 N    0.760552   -5.621932   -1.479665
 C    1.009275   -1.920272   -0.663184
 C    0.779381   -3.265547   -1.109725
 C    1.268920   -4.569117   -0.838934
 N    2.232800   -4.806987    0.096753
 C    1.895094   -1.496126    0.429559
 C    2.771111   -0.418870    0.278928
 C    3.541640    0.037025    1.336881
 C    3.436894   -0.588285    2.576737
 C    2.617607   -1.700263    2.735621
 C    1.856871   -2.147798    1.666970
 O    4.171795   -0.183975    3.666755
 C    4.245901    1.159031    3.971563
 C    5.452819    1.598181    4.507728
 C    5.589792    2.925948    4.889397
 C    4.522157    3.809617    4.748737
 C    3.318431    3.355488    4.222471
 C    3.163794    2.027255    3.826349
 H   -2.948403    1.240813   -1.533785
 H   -2.738775    4.150930   -1.344119
 H   -3.927044    3.663029    0.751461
 H   -5.023401    4.472244   -0.388015
 H   -5.153402    2.719329   -0.122695
 H   -4.702947    4.097470   -2.925000
 H   -4.834714    2.346307   -2.677658
 H   -3.400818    3.028868   -3.483150
 H   -1.806278   -0.038691    0.007159
 H    0.841596    0.930438   -1.138463
 H   -0.566472    0.760092   -2.154378
 H   -1.335244   -0.466028   -3.608717
 H   -1.376291   -2.138015   -4.171656
 H   -3.637021   -1.567525   -3.651709
 H   -3.056376   -2.659078   -2.363154
 H   -5.297939   -0.764324   -2.008264
 H   -4.647168   -0.000849   -0.532778
 H   -4.575300   -1.771748   -0.713623
 H   -0.568294   -6.281999   -2.903349
 H    2.625583   -5.738071    0.065178
 H    2.890180   -4.063340    0.286005
 H    2.856784    0.080324   -0.683693
 H    4.197817    0.892490    1.210263
 H    2.573598   -2.189039    3.702761
 H    1.202584   -3.005937    1.808038
 H    6.265491    0.885620    4.618369
 H    6.533977    3.271035    5.302926
 H    4.628500    4.848232    5.050061
 H    2.485567    4.045703    4.112632
 H    2.222850    1.674563    3.403327
