67 
5teh_ligand_aiqm1.xyz
 O   -1.340414    3.226557    0.332370
 C   -1.651601    2.196749   -0.234589
 N   -2.626212    2.099416   -1.162938
 C   -3.535159    3.209045   -1.442564
 C   -4.670927    3.245796   -0.426792
 C   -4.057546    3.060177   -2.860260
 C   -0.926270    0.858146    0.005829
 C   -0.155737    0.918928    1.251935
 N    0.474684    0.976062    2.219512
 C   -0.019425    0.499024   -1.205365
 C    0.177757   -0.973728   -1.359356
 N   -0.535695   -1.727245   -2.299765
 C   -1.533443   -1.290500   -3.251496
 C   -2.950327   -1.544382   -2.778838
 O   -3.211401   -0.726771   -1.647288
 C   -4.460673   -1.030483   -1.055021
 C   -0.196659   -3.039268   -2.154017
 N   -0.695527   -4.038115   -2.901446
 C   -0.176958   -5.210389   -2.558743
 N    0.737462   -5.481231   -1.614894
 C    0.973063   -1.818235   -0.619085
 C    0.741029   -3.149827   -1.128369
 C    1.207382   -4.457860   -0.889049
 N    2.112335   -4.754956    0.074514
 C    1.828866   -1.432165    0.516658
 C    2.781635   -0.414503    0.401161
 C    3.533966   -0.011441    1.497954
 C    3.338878   -0.634859    2.729794
 C    2.412234   -1.663555    2.863729
 C    1.667819   -2.059812    1.756999
 O    4.086928   -0.302524    3.832185
 C    4.279738    1.048723    4.055934
 C    5.562008    1.460083    4.400388
 C    5.791560    2.802487    4.689592
 C    4.750671    3.724280    4.619834
 C    3.472416    3.295323    4.271527
 C    3.222259    1.955221    3.989830
 H   -2.892322    1.175134   -1.480515
 H   -2.943834    4.118828   -1.352082
 H   -4.283309    3.338689    0.586896
 H   -5.326700    4.093627   -0.625473
 H   -5.267454    2.330604   -0.493876
 H   -4.726615    3.882569   -3.108151
 H   -4.618989    2.125414   -2.953100
 H   -3.239154    3.048801   -3.580761
 H   -1.693186    0.089486    0.115837
 H    0.939018    0.998106   -1.080913
 H   -0.472989    0.908100   -2.106590
 H   -1.387376   -0.231039   -3.465361
 H   -1.374782   -1.849846   -4.172549
 H   -3.654045   -1.297291   -3.580552
 H   -3.072364   -2.599570   -2.514946
 H   -5.270536   -0.926497   -1.783401
 H   -4.608004   -0.322106   -0.239857
 H   -4.462684   -2.050376   -0.661370
 H   -0.530088   -6.069910   -3.112632
 H    2.483551   -5.687513    0.079069
 H    2.629648   -4.020073    0.519431
 H    2.926135    0.078625   -0.552867
 H    4.249895    0.796015    1.413936
 H    2.277004   -2.128200    3.831063
 H    0.940390   -2.854163    1.869207
 H    6.353495    0.724014    4.449755
 H    6.788490    3.123612    4.961397
 H    4.934286    4.767843    4.835902
 H    2.661605    4.008627    4.218150
 H    2.231698    1.613722    3.719079
