67 
5teh_ligand_xtb.xyz
 O   -1.283752    3.349393    0.018416
 C   -1.702154    2.251980   -0.270101
 N   -2.830349    2.020959   -0.963428
 C   -3.692691    3.075592   -1.460054
 C   -5.089965    2.922971   -0.864491
 C   -3.732364    3.031123   -2.986551
 C   -0.953915    0.940131    0.049418
 C   -0.212634    1.056607    1.277498
 N    0.380648    1.155612    2.249773
 C    0.006210    0.632572   -1.134054
 C    0.155214   -0.835191   -1.336796
 N   -0.614253   -1.543126   -2.242951
 C   -1.654746   -1.080728   -3.120904
 C   -3.033196   -1.525251   -2.627495
 O   -3.342826   -0.854947   -1.420141
 C   -4.526177   -1.322189   -0.817576
 C   -0.293523   -2.859777   -2.136537
 N   -0.817390   -3.856741   -2.856848
 C   -0.304194   -5.033534   -2.560941
 N    0.639224   -5.315630   -1.676543
 C    0.963908   -1.701447   -0.638490
 C    0.693892   -3.009216   -1.142644
 C    1.165309   -4.323634   -0.955280
 N    2.122346   -4.645308   -0.062016
 C    1.847125   -1.358050    0.477061
 C    2.822502   -0.371739    0.364949
 C    3.578825    0.000655    1.456602
 C    3.375072   -0.616116    2.687338
 C    2.443407   -1.642480    2.796513
 C    1.686356   -2.004003    1.701719
 O    4.115390   -0.303968    3.794010
 C    4.406711    1.014965    4.048391
 C    5.592213    1.284466    4.723418
 C    5.910002    2.586974    5.059758
 C    5.054425    3.623195    4.724899
 C    3.869349    3.348434    4.063009
 C    3.535710    2.049910    3.724426
 H   -3.101982    1.068135   -1.177143
 H   -3.246273    4.017945   -1.126460
 H   -5.040944    2.944246    0.221328
 H   -5.730745    3.734257   -1.198127
 H   -5.532930    1.978907   -1.176762
 H   -4.361430    3.829824   -3.368992
 H   -4.135999    2.078594   -3.326226
 H   -2.732417    3.154708   -3.395966
 H   -1.678772    0.126091    0.153208
 H    0.975053    1.083494   -0.919558
 H   -0.383111    1.106887   -2.036650
 H   -1.622108    0.006303   -3.201787
 H   -1.494723   -1.526680   -4.106990
 H   -3.791963   -1.293519   -3.389680
 H   -3.018945   -2.610535   -2.466765
 H   -5.388724   -1.176491   -1.478462
 H   -4.664521   -0.746458    0.096021
 H   -4.447109   -2.386072   -0.571279
 H   -0.697780   -5.877500   -3.112475
 H    2.456583   -5.592118   -0.050372
 H    2.614548   -3.924378    0.434865
 H    2.999428    0.101253   -0.590138
 H    4.325476    0.775938    1.364914
 H    2.308562   -2.126983    3.750746
 H    0.932041   -2.771430    1.801416
 H    6.246361    0.464959    4.978717
 H    6.832462    2.792561    5.582724
 H    5.307631    4.640129    4.984782
 H    3.190261    4.149141    3.810869
 H    2.601861    1.835728    3.225484
