74 
5tg2_ligand_xtb.xyz
 C    6.479863    1.734225   -1.960574
 C    5.266661    1.196077   -2.708767
 C    3.998565    1.272564   -1.860947
 C    2.786102    0.721552   -2.608543
 C    1.465597    0.924334   -1.866403
 C    1.379199    0.233769   -0.502108
 C    0.196185    1.077117    1.386280
 C    1.396023   -1.291022   -0.597247
 C    1.368618   -1.964364    0.773731
 C    1.531476   -3.476060    0.646318
 C    1.470142   -4.212961    1.985368
 C    0.079150   -4.183057    2.632723
 N   -0.925204   -4.646285    1.707482
 O    0.145510    0.674891    0.095864
 O    1.161097    0.945251    2.100209
 N   -0.957860    1.625671    1.829564
 C   -2.163325    2.045304    1.130670
 C   -3.150222    0.883928    0.904505
 O   -4.310144    0.996977    1.264191
 C   -1.930988    2.765839   -0.206055
 C   -1.458482    4.219445   -0.074216
 C   -0.057976    4.328737    0.523393
 C   -1.486211    4.878438   -1.453198
 N   -2.637394   -0.180300    0.278211
 C   -3.363164   -1.418632   -0.012768
 C   -3.713621   -2.164108    1.279124
 C   -2.476886   -2.763614    1.943371
 C   -2.019424   -4.019924    1.216863
 O   -2.619208   -4.494075    0.272193
 C   -4.628267   -1.164461   -0.862415
 O   -5.768890   -0.842543   -0.128081
 H    7.371067    1.670945   -2.580265
 H    6.652376    1.162330   -1.051490
 H    6.326733    2.775242   -1.684820
 H    5.122913    1.769737   -3.627224
 H    5.447039    0.156943   -2.993690
 H    3.812636    2.313429   -1.586338
 H    4.156475    0.708838   -0.940025
 H    2.938039   -0.338230   -2.819425
 H    2.706455    1.232833   -3.571050
 H    1.313241    1.995215   -1.708713
 H    0.643233    0.559862   -2.487080
 H    2.190814    0.567389    0.153537
 H    0.540252   -1.623254   -1.190966
 H    2.305944   -1.586547   -1.119979
 H    2.167746   -1.556067    1.395591
 H    0.423407   -1.733276    1.266212
 H    2.496425   -3.686809    0.179885
 H    0.755218   -3.865157   -0.016614
 H    1.756300   -5.254825    1.822192
 H    2.186559   -3.774554    2.681574
 H   -0.163190   -3.173309    2.958288
 H    0.084915   -4.828515    3.520122
 H   -0.693353   -5.503651    1.221299
 H   -0.911034    1.867835    2.807750
 H   -2.682128    2.736923    1.802888
 H   -1.220209    2.203907   -0.810347
 H   -2.889299    2.767726   -0.731845
 H   -2.158869    4.754207    0.577381
 H   -0.032742    3.979811    1.551595
 H    0.272103    5.365274    0.511687
 H    0.651747    3.740682   -0.055095
 H   -1.183244    5.920276   -1.383383
 H   -0.804970    4.368561   -2.131411
 H   -2.486037    4.841496   -1.879073
 H   -1.666052   -0.130202    0.006148
 H   -2.686826   -2.036102   -0.608906
 H   -4.409963   -2.963865    1.027734
 H   -4.210786   -1.476308    1.962603
 H   -2.704575   -3.043528    2.974551
 H   -1.674449   -2.023206    1.966216
 H   -4.396646   -0.378047   -1.600728
 H   -4.867397   -2.084386   -1.402315
 H   -5.537388   -0.101736    0.463996
