74 
5tg2_ligand_ani-2x.xyz
 C    6.502145    1.272662   -2.193471
 C    5.207603    0.842451   -2.877968
 C    3.974646    1.067840   -2.004660
 C    2.669416    0.662298   -2.688108
 C    1.415545    0.967492   -1.862327
 C    1.404463    0.355355   -0.464874
 C    0.135134    1.150047    1.392336
 C    1.567449   -1.159732   -0.471748
 C    1.439674   -1.813896    0.901820
 C    1.775762   -3.303413    0.855243
 C    1.556739   -4.048855    2.175663
 C    0.110502   -4.063936    2.686356
 N   -0.807521   -4.580965    1.687871
 O    0.112804    0.700924    0.117055
 O    1.128545    1.187456    2.092604
 N   -1.087692    1.547983    1.852472
 C   -2.267632    2.003513    1.116176
 C   -3.209773    0.851330    0.735846
 O   -4.420139    0.979787    0.930738
 C   -2.017643    2.907876   -0.106242
 C   -1.509367    4.327887    0.190704
 C   -0.047109    4.374734    0.646952
 C   -1.684613    5.190662   -1.061626
 N   -2.639560   -0.222360    0.166016
 C   -3.325610   -1.477347   -0.162547
 C   -3.724848   -2.247492    1.099903
 C   -2.531447   -2.807153    1.865108
 C   -1.948660   -4.037033    1.171888
 O   -2.496917   -4.547033    0.205373
 C   -4.536402   -1.297818   -1.092661
 O   -5.723030   -0.975590   -0.424238
 H    7.370962    1.112258   -2.840246
 H    6.665164    0.707393   -1.268378
 H    6.471826    2.336525   -1.930026
 H    5.087606    1.394018   -3.820725
 H    5.269006   -0.220780   -3.148690
 H    3.918596    2.129498   -1.721175
 H    4.096894    0.509343   -1.065626
 H    2.700234   -0.408501   -2.935568
 H    2.591607    1.186566   -3.650134
 H    1.304300    2.055012   -1.752259
 H    0.526515    0.612419   -2.400459
 H    2.169886    0.804008    0.175005
 H    0.830783   -1.598028   -1.162249
 H    2.557584   -1.389058   -0.889587
 H    2.087433   -1.298108    1.623486
 H    0.415045   -1.678717    1.265167
 H    2.825748   -3.423776    0.557164
 H    1.177293   -3.779262    0.066540
 H    1.884471   -5.090025    2.050769
 H    2.197401   -3.617394    2.957788
 H   -0.199622   -3.055490    2.976238
 H    0.062777   -4.680128    3.593991
 H   -0.520461   -5.411288    1.186310
 H   -1.020644    1.869486    2.807252
 H   -2.852038    2.578211    1.840674
 H   -1.331390    2.408776   -0.799477
 H   -2.984394    2.987262   -0.621934
 H   -2.134698    4.758487    0.988593
 H    0.114048    3.889847    1.615473
 H    0.287409    5.414291    0.739554
 H    0.605477    3.883071   -0.087189
 H   -1.350766    6.219346   -0.884845
 H   -1.092358    4.786130   -1.892893
 H   -2.731365    5.228045   -1.384402
 H   -1.639700   -0.174701    0.018790
 H   -2.582796   -2.063779   -0.718701
 H   -4.369161   -3.081195    0.805058
 H   -4.312731   -1.580387    1.739042
 H   -2.839120   -3.100545    2.877022
 H   -1.758449   -2.036316    1.990146
 H   -4.287303   -0.562451   -1.873970
 H   -4.710383   -2.260707   -1.591632
 H   -5.523752   -0.166432    0.085649
