15 
5thi_ligand_ani-2x.xyz
 C   -6.526348    1.168160   16.604101
 O   -7.388369    0.279578   16.594341
 C   -5.182516    0.762565   16.110838
 O   -5.178227   -0.524012   15.743794
 C   -4.034018    1.475720   15.990539
 C   -3.786358    2.843871   16.309828
 C   -6.031981    3.593532   17.154692
 C   -6.832686    2.505894   17.070706
 C   -4.644559    3.764759   16.813055
 H   -6.102059   -0.819134   15.919511
 H   -3.193532    0.908839   15.592954
 H   -2.765164    3.169690   16.115202
 H   -6.509159    4.492387   17.544547
 H   -7.870560    2.598004   17.388956
 H   -4.255064    4.765548   16.988035
