15 
5thj_ligand_ani-2x.xyz
 C   -6.180199    1.419460   15.651538
 O   -6.918342    0.565001   16.159332
 C   -4.976424    0.892863   14.953789
 O   -4.935653   -0.442759   15.017885
 C   -3.978574    1.542968   14.302827
 C   -3.799012    2.943613   14.100015
 C   -5.813065    3.898176   15.262879
 C   -6.491483    2.832185   15.747165
 C   -4.587272    3.966827   14.511763
 H   -5.746948   -0.674993   15.526991
 H   -3.216289    0.888764   13.882278
 H   -2.902766    3.201708   13.537026
 H   -6.262332    4.868797   15.471914
 H   -7.414683    3.008748   16.297954
 H   -4.271158    4.975042   14.252044
