81 
5tho_ligand_xtb.xyz
 C   -2.890166    0.313614   -0.767732
 O   -3.043591   -0.576231    0.048376
 C   -3.889321    0.631437   -1.867235
 C   -4.903671   -0.502796   -2.044237
 C   -5.957142   -0.117454   -3.040916
 C   -7.093542    0.571228   -2.635746
 C   -8.049624    0.960303   -3.556607
 C   -7.880235    0.667306   -4.899129
 C   -6.750543   -0.016621   -5.313907
 C   -5.796092   -0.404252   -4.390251
 O    0.049379    2.926606   -1.031672
 C    0.129757    2.276735   -0.005446
 C   -0.755665    1.040370    0.215120
 C    0.054329   -0.265591    0.035317
 C    0.687100   -0.747781    1.326001
 N    0.735669   -2.067741    1.559389
 C    0.201909   -3.087530    0.677174
 C   -1.289810   -3.351797    0.883614
 C    1.320653   -2.492442    2.823276
 C    0.341873   -2.382938    3.988273
 O    1.163389    0.047886    2.136066
 N   -1.808979    1.115309   -0.767769
 O    2.379639    3.349969    3.309294
 N    0.942792    2.542420    1.020372
 C    2.015942    3.502897    0.957143
 C    3.378107    2.842626    0.666569
 O    4.212783    3.395152   -0.022112
 C    2.113323    4.271673    2.277513
 C    2.517486    3.957670    4.566712
 C    3.608933   -3.180794   -0.056026
 C    4.297153   -2.928752    1.094972
 C    3.269478   -2.128687   -0.931695
 C    3.338434    0.228095   -1.531119
 C    3.660591   -0.798982   -0.615556
 C    2.638751   -0.042485   -2.675646
 N    3.549336    1.639419    1.229929
 C    4.735305    0.837667    1.010518
 C    4.359072   -0.560825    0.599116
 C    4.657891   -1.614669    1.424113
 C    2.232705   -1.352317   -2.972138
 C    2.550469   -2.372989   -2.121148
 H   -4.411927    1.551067   -1.590542
 H   -3.358246    0.818960   -2.802310
 H   -4.377452   -1.400158   -2.374959
 H   -5.353428   -0.716945   -1.073478
 H   -7.230721    0.798945   -1.587957
 H   -8.930170    1.492282   -3.226471
 H   -8.626694    0.969302   -5.618938
 H   -6.613174   -0.249447   -6.360027
 H   -4.916672   -0.940383   -4.718954
 H   -1.191725    1.053198    1.221713
 H   -0.637268   -1.005961   -0.354249
 H    0.848705   -0.107196   -0.699407
 H    0.399868   -2.805441   -0.359323
 H    0.761235   -4.006353    0.871980
 H   -1.628934   -4.085144    0.156268
 H   -1.474628   -3.748296    1.877906
 H   -1.880472   -2.447058    0.761636
 H    1.670672   -3.519680    2.711649
 H    2.181628   -1.847398    3.018808
 H   -0.525059   -3.019391    3.834652
 H    0.835372   -2.681353    4.909400
 H    0.007732   -1.354271    4.089568
 H   -1.664346    1.840489   -1.462174
 H    0.970554    1.868758    1.784230
 H    1.805512    4.199212    0.138785
 H    1.166830    4.799306    2.473792
 H    2.920000    5.016126    2.205163
 H    3.354504    4.666526    4.576088
 H    1.602590    4.490710    4.853948
 H    2.709761    3.157403    5.278089
 H    3.318955   -4.188254   -0.319166
 H    4.564071   -3.733570    1.764235
 H    3.650743    1.240486   -1.336518
 H    2.396234    0.757616   -3.358669
 H    2.836171    1.240094    1.825054
 H    5.324945    1.341254    0.238034
 H    5.330863    0.801174    1.929965
 H    5.188672   -1.434906    2.348311
 H    1.679518   -1.546998   -3.879176
 H    2.261920   -3.389816   -2.349424
