81 
5tho_ligand_ani-2x.xyz
 C   -3.249116    0.536666   -0.837412
 O   -3.597572   -0.141715    0.119741
 C   -4.153492    0.817494   -2.027649
 C   -5.609877    0.444082   -1.740722
 C   -6.501137    0.671638   -2.937490
 C   -6.953498    1.956559   -3.246284
 C   -7.743387    2.184767   -4.368236
 C   -8.087630    1.127449   -5.206288
 C   -7.636939   -0.155989   -4.913441
 C   -6.849165   -0.379319   -3.787235
 O    0.070508    2.715971   -1.010086
 C   -0.136423    2.193088    0.076948
 C   -1.079859    0.985824    0.196421
 C   -0.307376   -0.347210    0.136240
 C    0.430957   -0.717973    1.420106
 N    1.004119   -1.947096    1.484553
 C    0.858928   -2.971429    0.456521
 C   -0.388621   -3.841082    0.590013
 C    1.729530   -2.300114    2.709755
 C    0.837789   -2.620650    3.905035
 O    0.522799    0.072547    2.363972
 N   -2.005392    1.081842   -0.908425
 O    2.069019    3.062384    3.390843
 N    0.441903    2.631216    1.222867
 C    1.543633    3.564958    1.136746
 C    2.842596    2.969446    0.567071
 O    3.608278    3.665810   -0.081632
 C    1.806074    4.142072    2.520406
 C    2.426666    3.488876    4.684958
 C    4.677595   -3.200565    0.445991
 C    5.205197   -2.475650    1.487044
 C    3.977096   -2.559224   -0.610541
 C    2.988186   -0.541961   -1.562560
 C    3.780594   -1.151055   -0.546656
 C    2.507088   -1.261050   -2.629969
 N    3.095583    1.660749    0.846602
 C    4.389225    1.103503    0.488250
 C    4.406344   -0.405869    0.502886
 C    5.073144   -1.075145    1.503577
 C    2.765934   -2.639074   -2.730026
 C    3.473616   -3.270321   -1.734555
 H   -4.070558    1.876786   -2.306434
 H   -3.781413    0.243785   -2.886543
 H   -5.647324   -0.601694   -1.420348
 H   -5.965715    1.035315   -0.889397
 H   -6.682371    2.788016   -2.596969
 H   -8.090058    3.191267   -4.590076
 H   -8.704051    1.304261   -6.084291
 H   -7.900653   -0.988114   -5.562191
 H   -6.503450   -1.386833   -3.562691
 H   -1.644081    1.017987    1.133775
 H   -1.041193   -1.128922   -0.082103
 H    0.397451   -0.333704   -0.705371
 H    0.900768   -2.507421   -0.533860
 H    1.736331   -3.617553    0.535980
 H   -0.401899   -4.594212   -0.206097
 H   -0.396818   -4.369178    1.550546
 H   -1.317530   -3.263366    0.517475
 H    2.360171   -3.161743    2.465847
 H    2.397405   -1.466127    2.953087
 H    0.169314   -3.462549    3.690703
 H    1.459601   -2.892717    4.765348
 H    0.231798   -1.753593    4.180690
 H   -1.722729    1.692604   -1.665255
 H    0.423146    2.005726    2.023631
 H    1.271677    4.367752    0.449887
 H    0.918324    4.699419    2.856953
 H    2.657444    4.838976    2.485751
 H    3.354715    4.080485    4.669662
 H    1.629675    4.093279    5.144817
 H    2.586640    2.592244    5.288619
 H    4.799943   -4.280178    0.412663
 H    5.739180   -2.977450    2.289788
 H    2.757532    0.516307   -1.481197
 H    1.922225   -0.764941   -3.400714
 H    2.550246    1.205946    1.569067
 H    4.639994    1.491455   -0.505560
 H    5.163215    1.488570    1.167896
 H    5.526033   -0.509255    2.315606
 H    2.392760   -3.204297   -3.578853
 H    3.651342   -4.341184   -1.786881
