71 
5tl9_ligand_aiqm1.xyz
 O   -1.309594    0.808377    0.657140
 C    3.354538    0.967807   -3.651239
 O   -0.406832    0.756369   -1.375206
 C    2.543902    0.371836   -2.727968
 C    0.946104   -1.892921    1.680629
 N    4.058826    0.936078   -0.942863
 C    2.949499    0.375951   -1.356049
 C    2.544922   -0.078228    0.989269
 C    1.746256   -1.606221   -0.689387
 C    0.601297   -2.075099    0.196428
 O   -0.275910   -3.363611    3.134175
 C   -0.254466   -2.302485    2.525677
 N   -1.281855   -1.423362    2.514126
 C   -2.560546   -1.715547    3.123850
 C   -3.166715   -0.519059    3.867176
 C   -4.700581   -0.702307    3.773553
 C   -4.923737   -1.983193    2.935978
 C   -3.638179   -2.192459    2.126534
 C   -3.639332   -1.508815    0.752817
 C   -4.081525   -0.038695    0.721121
 C   -3.976323    0.554359   -0.665461
 C   -5.144600    0.709484   -1.419368
 C   -5.121346    1.190153   -2.723768
 C   -3.907516    1.520648   -3.318544
 C   -2.733671    1.376687   -2.594161
 C   -2.753298    0.911932   -1.272525
 C   -1.455341    0.822420   -0.548808
 C    1.434037   -0.469571    1.950725
 N    2.071049   -0.192780   -0.399911
 C    4.568454    1.572396   -3.240253
 C    4.874994    1.536903   -1.859162
 C    5.452512    2.202487   -4.148371
 C    6.608660    2.778830   -3.688388
 C    6.915222    2.742932   -2.306542
 C    6.080950    2.141929   -1.393631
 C    6.404654    2.101561    0.072824
 H    3.071973    0.992022   -4.697494
 H    0.415661    0.601074   -0.859717
 H    1.596575   -0.062882   -3.013998
 H    1.745044   -2.593967    1.927913
 H    3.432908   -0.707524    1.132292
 H    2.842855    0.954720    1.158327
 H    2.632355   -2.234397   -0.513571
 H    1.474968   -1.703625   -1.740993
 H    0.403177   -3.130192   -0.008623
 H   -0.304127   -1.512478   -0.043514
 H   -1.209834   -0.609105    1.926833
 H   -2.392897   -2.532074    3.826337
 H   -2.852013    0.414752    3.399002
 H   -2.809016   -0.489908    4.897124
 H   -5.161260    0.163283    3.297941
 H   -5.157414   -0.799279    4.757719
 H   -5.817283   -1.927586    2.310146
 H   -5.053548   -2.835523    3.606106
 H   -3.472500   -3.256273    1.932334
 H   -4.313215   -2.076660    0.098335
 H   -2.643674   -1.597843    0.308737
 H   -5.126984    0.025141    1.033464
 H   -3.502753    0.552468    1.422589
 H   -6.093689    0.442603   -0.969826
 H   -6.047763    1.299030   -3.273733
 H   -3.876384    1.886844   -4.336049
 H   -1.784861    1.633326   -3.047120
 H    1.800470   -0.396319    2.978670
 H    0.617400    0.240879    1.835511
 H    5.201839    2.221236   -5.202513
 H    7.290789    3.262510   -4.375816
 H    7.833614    3.202691   -1.959125
 H    7.354993    2.596281    0.270792
 H    6.458636    1.070945    0.425966
 H    5.621547    2.591347    0.652640
