71 
5tl9_ligand_xtb.xyz
 O   -1.087920    0.780824    0.600661
 C    3.394616    0.699346   -3.676635
 O   -0.239056    0.507671   -1.430668
 C    2.666746   -0.028110   -2.784834
 C    0.945714   -2.129098    1.658105
 N    3.936591    0.858179   -0.960952
 C    2.988111    0.066992   -1.402621
 C    2.639585   -0.420036    0.939084
 C    1.831555   -1.982184   -0.694886
 C    0.632724   -2.352564    0.175149
 O   -0.347845   -3.461748    3.180698
 C   -0.293290   -2.461194    2.492165
 N   -1.315362   -1.594766    2.361767
 C   -2.572131   -1.764897    3.041617
 C   -2.968646   -0.541266    3.882057
 C   -4.503010   -0.482306    3.858157
 C   -4.969193   -1.650950    2.976171
 C   -3.772572   -2.049180    2.107530
 C   -3.727797   -1.361334    0.736151
 C   -3.893161    0.164474    0.729514
 C   -3.775945    0.688347   -0.672586
 C   -4.934564    0.892045   -1.413490
 C   -4.893135    1.332118   -2.723390
 C   -3.672675    1.574246   -3.332639
 C   -2.507550    1.368942   -2.623092
 C   -2.543593    0.929761   -1.298668
 C   -1.251157    0.742075   -0.602624
 C    1.467401   -0.707042    1.872497
 N    2.230796   -0.603456   -0.448091
 C    4.438676    1.538872   -3.226669
 C    4.659257    1.594044   -1.826649
 C    5.236460    2.312931   -4.087448
 C    6.219133    3.112010   -3.571763
 C    6.435216    3.167968   -2.187603
 C    5.679059    2.433423   -1.309801
 C    5.893225    2.488626    0.168867
 H    3.176501    0.652486   -4.734960
 H    0.599898    0.328910   -0.938321
 H    1.846432   -0.641052   -3.121860
 H    1.720148   -2.842070    1.961322
 H    3.484830   -1.082230    1.173401
 H    2.977729    0.609980    1.052492
 H    2.669479   -2.657217   -0.461978
 H    1.573555   -2.116231   -1.745073
 H    0.379255   -3.400639    0.005976
 H   -0.230121   -1.752749   -0.115992
 H   -1.207333   -0.752148    1.814875
 H   -2.441325   -2.634494    3.694268
 H   -2.533415    0.359235    3.448180
 H   -2.582835   -0.632152    4.896297
 H   -4.841721    0.470514    3.453608
 H   -4.917357   -0.573643    4.861548
 H   -5.840555   -1.392095    2.376106
 H   -5.242272   -2.496481    3.608539
 H   -3.801985   -3.122532    1.896073
 H   -4.526551   -1.789915    0.123364
 H   -2.782801   -1.622206    0.253190
 H   -4.879664    0.420627    1.115631
 H   -3.139311    0.627888    1.358566
 H   -5.890960    0.703954   -0.946783
 H   -5.812275    1.486782   -3.269029
 H   -3.631085    1.920404   -4.354149
 H   -1.549725    1.556378   -3.083355
 H    1.795047   -0.585510    2.905775
 H    0.683454    0.023936    1.679786
 H    5.059353    2.262972   -5.152597
 H    6.837535    3.707922   -4.226911
 H    7.218879    3.808137   -1.807064
 H    6.775444    3.074306    0.413665
 H    6.002312    1.481588    0.565262
 H    5.025277    2.934882    0.652166
