39 
5tpb_ligand_ani-2x.xyz
 C   -0.331051    3.378414   -0.315473
 C   -0.249154    2.697863    1.051913
 C   -1.591977    2.152128    1.528079
 C   -2.030149    0.956591    0.708850
 C   -0.902846   -0.087797    0.630360
 C    0.459344    0.527432    0.268821
 C    1.654357   -0.382464    0.611331
 C    1.707846   -1.731649   -0.113654
 C    3.144530   -2.220617   -0.248567
 C   -1.628133   -0.982840   -1.582820
 C   -1.798990   -2.267606   -2.367824
 N   -1.303771   -1.172312   -0.262908
 O   -1.266288    4.344198   -0.308125
 O    0.343673    3.129743   -1.283463
 O   -3.154854    0.395795    1.360637
 O    0.734065    1.689432    1.066202
 O    2.856348    0.314608    0.333400
 O    0.943604   -2.702979    0.598137
 O    3.749262   -2.290080    1.032981
 O   -1.771649    0.121347   -2.085462
 H    0.092320    3.471363    1.751668
 H   -1.489644    1.828443    2.569070
 H   -2.350633    2.938147    1.482403
 H   -2.286762    1.265500   -0.312764
 H   -0.804054   -0.526715    1.630224
 H    0.486187    0.806131   -0.791314
 H    1.594491   -0.593816    1.691252
 H    1.278532   -1.634605   -1.116828
 H    3.132897   -3.236389   -0.654679
 H    3.708329   -1.570628   -0.926817
 H   -0.829402   -2.759877   -2.515834
 H   -2.222304   -2.032269   -3.344690
 H   -2.452317   -2.972158   -1.843099
 H   -0.911828   -2.075994   -0.022579
 H   -1.259687    4.744312   -1.193945
 H   -3.427511   -0.374214    0.843879
 H    2.741248    1.198557    0.711577
 H    1.503133   -2.978530    1.342467
 H    3.932838   -1.366266    1.262496
