39 
5tpb_ligand_xtb.xyz
 C   -0.171135    3.384615   -0.220167
 C   -0.252058    2.709483    1.150131
 C   -1.665403    2.243905    1.498759
 C   -2.047645    1.060004    0.615589
 C   -0.977917   -0.046629    0.751084
 C    0.408823    0.536902    0.416113
 C    1.580220   -0.424540    0.694602
 C    1.638286   -1.630577   -0.281384
 C    3.092111   -2.031057   -0.579834
 C   -1.496304   -1.140745   -1.416581
 C   -1.643909   -2.512363   -2.037690
 N   -1.328583   -1.192209   -0.067058
 O   -1.188997    4.219239   -0.431602
 O    0.722397    3.224476   -1.003875
 O   -3.307266    0.593875    1.038581
 O    0.679972    1.659897    1.251625
 O    2.796101    0.282312    0.630770
 O    0.962182   -2.739751    0.272073
 O    3.765458   -2.365893    0.606903
 O   -1.572104   -0.108667   -2.050314
 H    0.084884    3.454745    1.882701
 H   -1.697879    1.924718    2.541511
 H   -2.378523    3.053773    1.357725
 H   -2.089593    1.379384   -0.434489
 H   -0.974833   -0.383446    1.794412
 H    0.429054    0.838127   -0.639639
 H    1.449096   -0.821716    1.717861
 H    1.139609   -1.375340   -1.220479
 H    3.084069   -2.932559   -1.198253
 H    3.597779   -1.225950   -1.119377
 H   -0.785805   -3.129253   -1.782537
 H   -1.720536   -2.413673   -3.116359
 H   -2.542012   -2.993898   -1.657160
 H   -1.038718   -2.085817    0.304619
 H   -1.107988    4.634565   -1.306153
 H   -3.575005   -0.122122    0.452268
 H    2.600459    1.202727    0.852533
 H    1.604514   -3.189457    0.841761
 H    3.927198   -1.536884    1.076234
