77 
5trr_ligand_dft.xyz
 C   -2.696942    0.310824    1.069882
 O   -2.527433   -0.521792    1.954318
 C   -4.044957    0.546745    0.402331
 C   -5.121730   -0.419843    0.900755
 C   -6.436403   -0.187197    0.195729
 C   -7.371224    0.717737    0.703168
 C   -8.561837    0.969256    0.027794
 C   -8.835845    0.317093   -1.171229
 C   -7.912582   -0.588033   -1.687513
 C   -6.723985   -0.835521   -1.007650
 O    0.052226    2.713910   -0.521829
 C    0.420266    2.186275    0.521288
 C   -0.332738    0.974952    1.091849
 C    0.263704   -0.369408    0.626488
 C    1.508834   -0.809503    1.370746
 N    1.815359   -2.124052    1.361981
 C    0.942590   -3.150358    0.791890
 C   -0.136100   -3.647793    1.753176
 C    3.038124   -2.536668    2.052447
 C    2.880009   -2.651220    3.566127
 O    2.241721    0.005020    1.957585
 N   -1.690451    1.093599    0.609846
 N    1.469912    2.613397    1.257568
 C    2.417667    3.575970    0.728231
 C    3.411947    2.965232   -0.272977
 O    3.877465    3.644119   -1.177171
 C    3.175410    4.256999    1.866637
 C    2.941749   -2.946539   -1.918846
 C    4.152470   -2.832360   -1.294126
 C    2.206885   -1.786919   -2.285470
 C    2.012454    0.645500   -2.431643
 C    2.752318   -0.497447   -2.022618
 C    0.781516    0.513362   -3.024605
 N    3.748352    1.667955   -0.059456
 C    4.599001    0.942296   -0.984250
 C    4.011525   -0.403024   -1.344681
 C    4.677311   -1.552583   -0.997417
 C    0.229821   -0.766024   -3.255970
 C    0.933796   -1.889633   -2.904007
 H   -3.925635    0.450082   -0.684777
 H   -4.354908    1.584254    0.581119
 H   -4.778883   -1.447356    0.742675
 H   -5.237315   -0.298119    1.982029
 H   -7.164570    1.227084    1.641869
 H   -9.278432    1.674128    0.439675
 H   -9.766009    0.509644   -1.697540
 H   -8.119209   -1.104320   -2.620665
 H   -6.007472   -1.546976   -1.412991
 H   -0.334710    1.004439    2.186101
 H   -0.529168   -1.104246    0.759834
 H    0.486907   -0.320389   -0.445199
 H    0.494956   -2.766052   -0.127319
 H    1.588036   -3.977797    0.484728
 H    0.308630   -4.101920    2.643260
 H   -0.751438   -4.406401    1.258228
 H   -0.795021   -2.835332    2.076725
 H    3.810597   -1.802180    1.814333
 H    3.347173   -3.492236    1.619414
 H    3.835621   -2.932435    4.020754
 H    2.138841   -3.407962    3.839122
 H    2.570522   -1.690491    3.984432
 H   -1.813413    1.724548   -0.172942
 H    1.784504    1.969284    1.976757
 H    1.853203    4.314482    0.156524
 H    3.886757    4.978141    1.456220
 H    3.734997    3.523109    2.458040
 H    2.479266    4.780976    2.527379
 H    2.521287   -3.924057   -2.141860
 H    4.714242   -3.719330   -1.016064
 H    2.412173    1.639949   -2.271070
 H    0.225932    1.403609   -3.299489
 H    3.283145    1.130945    0.666168
 H    5.595625    0.797662   -0.550143
 H    4.722508    1.580959   -1.864355
 H    5.631001   -1.478627   -0.480748
 H   -0.746797   -0.857403   -3.721808
 H    0.524710   -2.879020   -3.094421
