77 
5trr_ligand_xtb.xyz
 C   -2.746467    0.531769    0.384318
 O   -2.425963    0.515214    1.558455
 C   -4.132948    0.167992   -0.118064
 C   -4.956423   -0.528030    0.970040
 C   -6.359449   -0.769660    0.495720
 C   -7.336411    0.204665    0.656985
 C   -8.621851    0.000356    0.188594
 C   -8.947576   -1.183339   -0.451446
 C   -7.981118   -2.159959   -0.619291
 C   -6.696297   -1.952383   -0.149709
 O   -0.566974    1.576875   -2.734673
 C   -0.007740    1.855712   -1.690752
 C   -0.536968    1.322693   -0.349110
 C    0.319153    0.139026    0.160501
 C    1.498618    0.573606    1.006091
 N    1.851356   -0.188826    2.049786
 C    1.159855   -1.394434    2.466247
 C   -0.053531   -1.125738    3.356899
 C    2.982266    0.261896    2.848379
 C    2.588540    1.306111    3.888307
 O    2.138997    1.591420    0.730568
 N   -1.890423    0.887019   -0.592075
 N    1.070606    2.635746   -1.568474
 C    1.877043    3.070173   -2.686422
 C    3.076157    2.139920   -2.939772
 O    3.497617    1.935648   -4.060088
 C    2.390391    4.487899   -2.448119
 C    3.761652   -2.728888    0.615579
 C    4.838088   -1.934759    0.885199
 C    2.948499   -2.474763   -0.508402
 C    2.453322   -1.184617   -2.511056
 C    3.264333   -1.390449   -1.372111
 C    1.370282   -1.983590   -2.758527
 N    3.628965    1.611972   -1.833185
 C    4.704538    0.641114   -1.893814
 C    4.377209   -0.564801   -1.055707
 C    5.132705   -0.845116    0.054027
 C    1.045906   -3.036081   -1.889255
 C    1.825486   -3.280298   -0.793885
 H   -4.046692   -0.470687   -0.999218
 H   -4.633131    1.090944   -0.423461
 H   -4.474550   -1.472605    1.229074
 H   -4.955394    0.103317    1.859917
 H   -7.086628    1.128835    1.159031
 H   -9.372310    0.765677    0.324221
 H   -9.951224   -1.344642   -0.816354
 H   -8.229390   -3.086428   -1.116724
 H   -5.945666   -2.719322   -0.281023
 H   -0.538561    2.115279    0.409602
 H   -0.348197   -0.497949    0.732200
 H    0.698993   -0.429440   -0.692942
 H    0.865094   -1.963381    1.581586
 H    1.881437   -2.004573    3.015478
 H    0.250551   -0.658117    4.288903
 H   -0.540722   -2.068635    3.592148
 H   -0.777954   -0.476876    2.870650
 H    3.712921    0.698354    2.162087
 H    3.431381   -0.608155    3.329656
 H    3.474221    1.644126    4.419608
 H    1.885107    0.898182    4.608643
 H    2.130606    2.159736    3.396422
 H   -2.141034    0.868118   -1.574710
 H    1.483119    2.696276   -0.640629
 H    1.248091    3.035298   -3.581928
 H    2.999999    4.802498   -3.290571
 H    2.995920    4.519782   -1.544346
 H    1.556483    5.176776   -2.338365
 H    3.517925   -3.567303    1.252658
 H    5.467210   -2.131925    1.740877
 H    2.687861   -0.393769   -3.203909
 H    0.758299   -1.803421   -3.629203
 H    3.217416    1.758852   -0.919905
 H    5.631536    1.099580   -1.529865
 H    4.842715    0.379776   -2.947736
 H    5.979530   -0.218239    0.295217
 H    0.185810   -3.654874   -2.098544
 H    1.598083   -4.101861   -0.128601
