77 
5trr_ligand_aiqm1.xyz
 C   -2.936972    0.673017    0.352298
 O   -2.730606    0.833584    1.546485
 C   -4.271758    0.220222   -0.216467
 C   -5.301647   -0.073709    0.869139
 C   -6.626174   -0.490221    0.285610
 C   -7.483573    0.458279   -0.280581
 C   -8.691958    0.076882   -0.855078
 C   -9.065318   -1.264199   -0.875170
 C   -8.223516   -2.218129   -0.310753
 C   -7.015097   -1.831717    0.263758
 O   -0.248154    1.220472   -2.577220
 C    0.012750    1.786665   -1.526056
 C   -0.649576    1.326320   -0.223068
 C    0.126290    0.183447    0.441440
 C    1.403482    0.623431    1.123529
 N    2.009242   -0.258252    1.940738
 C    1.437494   -1.559282    2.272015
 C    0.459012   -1.534376    3.442807
 C    3.233607    0.173040    2.620030
 C    2.990020    1.053385    3.840403
 O    1.881072    1.746451    0.925950
 N   -1.980105    0.889744   -0.578687
 N    0.848625    2.838971   -1.425762
 C    1.683833    3.230986   -2.546053
 C    2.858277    2.284141   -2.803515
 O    3.279604    2.129822   -3.938759
 C    2.202068    4.647271   -2.335379
 C    4.210079   -2.823702    0.572377
 C    5.235060   -1.931755    0.755164
 C    3.207188   -2.583385   -0.404465
 C    2.279101   -1.221763   -2.210356
 C    3.279902   -1.419006   -1.215463
 C    1.254958   -2.122501   -2.366763
 N    3.387737    1.670369   -1.716453
 C    4.506056    0.745161   -1.860957
 C    4.357790   -0.499505   -1.009560
 C    5.294895   -0.760222   -0.039479
 C    1.175802   -3.273139   -1.544450
 C    2.136454   -3.498170   -0.590404
 H   -4.103992   -0.664408   -0.840086
 H   -4.639105    1.002577   -0.888803
 H   -4.917772   -0.855828    1.526342
 H   -5.423629    0.815417    1.489426
 H   -7.202575    1.506247   -0.269099
 H   -9.340765    0.827881   -1.287088
 H  -10.004090   -1.561708   -1.322615
 H   -8.505322   -3.263397   -0.316631
 H   -6.364755   -2.580036    0.703580
 H   -0.718857    2.151355    0.483102
 H   -0.534841   -0.273931    1.171635
 H    0.365130   -0.582019   -0.300324
 H    0.951292   -1.957735    1.385058
 H    2.266837   -2.224311    2.506275
 H    0.946098   -1.202367    4.359848
 H    0.067600   -2.538913    3.612026
 H   -0.387790   -0.875523    3.253647
 H    3.827558    0.719214    1.890801
 H    3.785258   -0.723282    2.903776
 H    3.948280    1.352445    4.270373
 H    2.417748    0.534640    4.610637
 H    2.447776    1.953671    3.554213
 H   -2.146504    0.712117   -1.556950
 H    1.150765    3.087928   -0.494314
 H    1.077047    3.185215   -3.446540
 H    2.820959    4.948597   -3.179375
 H    2.805370    4.696059   -1.425317
 H    1.367024    5.340835   -2.239700
 H    4.153921   -3.734184    1.160379
 H    6.001509   -2.117055    1.499624
 H    2.316671   -0.349930   -2.851760
 H    0.494833   -1.942134   -3.115294
 H    2.978226    1.830433   -0.805666
 H    5.438797    1.252831   -1.587258
 H    4.573776    0.496384   -2.916958
 H    6.108008   -0.056624    0.105641
 H    0.361462   -3.974356   -1.676763
 H    2.092408   -4.384433    0.035013
