75 
5trs_ligand_ani-2x.xyz
 C    3.442993    1.028109    5.040763
 C    4.769086    1.284749    4.915407
 C    5.789122    1.893582    5.814041
 O    5.190854    0.884741    3.702479
 N    4.136985    0.348066    2.998645
 C    3.101314    0.434098    3.804701
 C    1.750571   -0.015303    3.370258
 O    0.758916    0.171927    4.065185
 O    2.064882   -2.010129   -0.027665
 C    0.888223   -1.905708    0.330399
 C    0.499561   -1.033111    1.538421
 C   -0.321322    0.203871    1.125352
 C   -1.768502   -0.064047    0.759558
 N   -2.407721    1.083443    0.352378
 O   -3.788355    1.059436    0.387787
 C   -4.377033    1.170593   -0.933283
 C   -4.242094    2.612959   -1.424209
 C   -5.841263    0.825231   -0.678859
 C   -3.746258    0.173064   -1.904689
 O   -2.314275   -1.156132    0.771397
 N    1.730577   -0.615243    2.164238
 O   -1.290324   -5.000580   -0.821396
 N   -0.121860   -2.512864   -0.315809
 C    0.073871   -3.214022   -1.578333
 C    0.281462   -2.209895   -2.729114
 O   -0.596462   -1.991158   -3.552439
 C   -1.135647   -4.085054   -1.875191
 C   -2.430029   -5.808319   -0.971411
 C   -0.165490    3.046500   -1.636940
 C   -0.755985    2.428187   -2.716571
 C    1.069572    2.581641   -1.115362
 C    2.899878    0.963838   -1.152091
 C    1.695221    1.452497   -1.732630
 C    3.448277    1.540185   -0.031779
 N    1.495377   -1.598951   -2.740447
 C    1.680529   -0.383966   -3.520028
 C    1.072640    0.840857   -2.865570
 C   -0.137566    1.320682   -3.317690
 C    2.829672    2.648046    0.574719
 C    1.676399    3.164799    0.027811
 H    2.789020    1.225278    5.876350
 H    6.223917    2.788381    5.359049
 H    5.326082    2.175096    6.761617
 H    6.599208    1.187320    6.018082
 H   -0.102052   -1.616517    2.244963
 H   -0.304786    0.892360    1.978406
 H    0.172950    0.713731    0.292672
 H   -2.057213    1.950780    0.741212
 H   -3.194034    2.901991   -1.553567
 H   -4.700550    3.302338   -0.708057
 H   -4.742796    2.724378   -2.391771
 H   -6.424422    0.899924   -1.603522
 H   -5.932112   -0.197096   -0.296932
 H   -6.272444    1.510102    0.057776
 H   -2.730536    0.464690   -2.192899
 H   -3.708390   -0.820300   -1.447827
 H   -4.350872    0.124024   -2.816459
 H    2.581890   -0.785665    1.641547
 H   -1.069423   -2.348851    0.017594
 H    0.966230   -3.843652   -1.474734
 H   -2.025473   -3.441759   -1.982846
 H   -0.994377   -4.603517   -2.835159
 H   -2.467104   -6.480799   -0.111289
 H   -2.383465   -6.409183   -1.892884
 H   -3.352378   -5.207498   -0.993390
 H   -0.631918    3.897673   -1.150589
 H   -1.696796    2.797205   -3.119187
 H    3.396883    0.108021   -1.599135
 H    4.355169    1.124483    0.398365
 H    2.058010   -1.723207   -1.901323
 H    1.204322   -0.545194   -4.491235
 H    2.753676   -0.251587   -3.701483
 H   -0.634062    0.815832   -4.143555
 H    3.259559    3.096351    1.467034
 H    1.182290    4.018049    0.485945
