58 
5tuq_ligand_xtb.xyz
 O   54.045200  -28.506709   34.241128
 C   52.838658  -28.601080   34.426217
 C   52.105578  -28.485758   35.663072
 C   52.910509  -28.063028   36.875888
 C   53.883326  -29.173528   37.278188
 C   53.668534  -26.759845   36.609851
 C   50.778146  -28.791509   35.677968
 C   49.935139  -28.775279   36.920604
 C   49.066152  -27.506159   37.040603
 C   48.021447  -27.692324   38.142599
 C   47.128881  -26.459513   38.256550
 C   47.965851  -25.214521   38.531860
 C   49.010579  -25.027051   37.436522
 C   49.902825  -26.261249   37.332194
 N   50.117043  -29.135167   34.515126
 C   48.780844  -29.733408   34.531678
 O   48.753059  -30.975784   35.156879
 C   49.231254  -32.059634   34.366388
 C   50.719142  -32.025732   34.121278
 C   51.227298  -32.058561   32.829505
 C   52.593774  -32.008154   32.613976
 C   53.463414  -31.929516   33.688047
 C   52.963478  -31.906270   34.979430
 C   51.598290  -31.951459   35.195588
 C   50.716006  -29.106229   33.258846
 N   52.052557  -28.826734   33.305893
 O   52.756808  -28.871314   32.113275
 O   50.108139  -29.299107   32.235182
 H   52.233338  -27.880681   37.711208
 H   54.570977  -29.378707   36.463338
 H   54.457802  -28.865950   38.148867
 H   53.339819  -30.083394   37.523331
 H   54.168231  -26.435696   37.519582
 H   54.416413  -26.905328   35.837134
 H   52.986517  -25.973671   36.292990
 H   50.568521  -28.852684   37.802128
 H   49.287717  -29.652291   36.913996
 H   48.543516  -27.335375   36.093007
 H   48.529902  -27.861209   39.094644
 H   47.409423  -28.571976   37.930384
 H   46.400899  -26.604739   39.057019
 H   46.576464  -26.324640   37.323578
 H   48.467374  -25.320823   39.496447
 H   47.320049  -24.336168   38.585563
 H   49.622167  -24.148481   37.650563
 H   48.508786  -24.859346   36.480652
 H   50.638188  -26.118500   36.538855
 H   50.439029  -26.392596   38.274653
 H   48.474665  -29.802026   33.479329
 H   48.082026  -29.094378   35.074498
 H   48.694706  -32.078080   33.408724
 H   48.963383  -32.950023   34.943473
 H   50.552787  -32.105948   31.987773
 H   52.975726  -32.018356   31.604794
 H   54.529240  -31.882850   33.522055
 H   53.641270  -31.855485   35.817896
 H   51.201884  -31.925461   36.200942
 H   53.686744  -28.747516   32.430542
