58 
5tuq_ligand_ani-2x.xyz
 O   53.907903  -28.422927   33.844801
 C   52.714276  -28.565736   34.117828
 C   52.056512  -28.359920   35.399177
 C   52.902606  -27.757181   36.503046
 C   54.013440  -28.709656   36.968533
 C   53.518821  -26.407314   36.107473
 C   50.742378  -28.735915   35.534815
 C   50.001904  -28.672688   36.849682
 C   49.103306  -27.428599   37.054280
 C   48.264232  -27.591371   38.329975
 C   47.330204  -26.401619   38.562150
 C   48.110335  -25.085575   38.595142
 C   48.944916  -24.913366   37.323896
 C   49.879012  -26.105732   37.106332
 N   49.997456  -29.172567   34.427078
 C   48.683997  -29.793774   34.593052
 O   48.729528  -31.077920   35.157141
 C   49.211244  -32.106074   34.294118
 C   50.719223  -32.268469   34.341967
 C   51.448670  -32.514842   33.179228
 C   52.830730  -32.677052   33.229230
 C   53.497039  -32.595766   34.447806
 C   52.775293  -32.343654   35.611740
 C   51.396143  -32.174018   35.556909
 C   50.533041  -29.247074   33.124731
 N   51.874886  -28.942923   33.075316
 O   52.476588  -29.077649   31.839678
 O   49.889342  -29.578876   32.152178
 H   52.252276  -27.568053   37.367459
 H   54.685042  -28.933693   36.135350
 H   54.591352  -28.249099   37.777447
 H   53.597618  -29.651639   37.345254
 H   54.048146  -25.971289   36.962458
 H   54.223852  -26.538193   35.283631
 H   52.745354  -25.697857   35.788116
 H   50.719535  -28.713253   37.675061
 H   49.385815  -29.574591   36.955036
 H   48.407475  -27.348025   36.203545
 H   48.949285  -27.693388   39.186453
 H   47.686244  -28.523934   38.280676
 H   46.763036  -26.536991   39.491003
 H   46.591787  -26.362044   37.747866
 H   48.780969  -25.086873   39.466986
 H   47.428527  -24.236508   38.727110
 H   49.522378  -23.981562   37.365984
 H   48.270663  -24.824011   36.459480
 H   50.456776  -25.964541   36.183249
 H   50.604637  -26.142364   37.934712
 H   48.238463  -29.811992   33.596666
 H   48.084636  -29.174649   35.257625
 H   48.898809  -31.906826   33.258119
 H   48.710760  -33.020810   34.634074
 H   50.933945  -32.568704   32.220558
 H   53.386908  -32.865877   32.312557
 H   54.575879  -32.729911   34.490615
 H   53.290679  -32.278379   36.569394
 H   50.832766  -31.974299   36.465586
 H   53.412864  -28.909387   32.082926
