58 
5tuq_ligand_aiqm1.xyz
 O   53.761274  -28.322061   33.716286
 C   52.588985  -28.527355   34.032109
 C   51.988488  -28.404882   35.354078
 C   52.875066  -27.908684   36.494127
 C   53.979615  -28.918743   36.816210
 C   53.467701  -26.522093   36.228539
 C   50.690096  -28.782062   35.511063
 C   49.968476  -28.734081   36.840592
 C   49.100695  -27.473091   37.009359
 C   48.280019  -27.560289   38.297507
 C   47.391830  -26.331151   38.476454
 C   48.226029  -25.052241   38.465228
 C   49.046600  -24.957063   37.180812
 C   49.929249  -26.189515   37.002935
 N   49.918972  -29.213629   34.416468
 C   48.604763  -29.853258   34.600435
 O   48.687479  -31.125028   35.186018
 C   49.272624  -32.127789   34.334150
 C   50.777414  -32.184369   34.443345
 C   51.597774  -32.046794   33.321585
 C   52.983182  -32.096667   33.451934
 C   53.568443  -32.302769   34.699291
 C   52.753033  -32.460419   35.820073
 C   51.367114  -32.399211   35.691954
 C   50.408427  -29.273222   33.116403
 N   51.725098  -28.902085   33.013844
 O   52.305188  -29.048150   31.772213
 O   49.729584  -29.623069   32.170664
 H   52.254268  -27.814913   37.384523
 H   54.714042  -28.942902   36.013503
 H   54.486359  -28.636351   37.740536
 H   53.566420  -29.923413   36.933234
 H   53.969948  -26.167946   37.130512
 H   54.195722  -26.565947   35.421735
 H   52.694919  -25.798917   35.962085
 H   50.692797  -28.757885   37.651146
 H   49.355592  -29.627523   36.956435
 H   48.397029  -27.411369   36.169687
 H   48.970817  -27.631797   39.146297
 H   47.675867  -28.472352   38.298298
 H   46.825237  -26.411269   39.405439
 H   46.663313  -26.291486   37.660050
 H   48.905201  -25.060019   39.324115
 H   47.582865  -24.176966   38.574009
 H   49.662228  -24.056580   37.183937
 H   48.367579  -24.877331   36.325802
 H   50.506124  -26.114636   36.078847
 H   50.655456  -26.235544   37.823203
 H   48.157630  -29.903096   33.606857
 H   47.987666  -29.248771   35.258602
 H   48.958388  -31.959457   33.300943
 H   48.845861  -33.065738   34.686452
 H   51.153395  -31.874460   32.350607
 H   53.605537  -31.977990   32.572780
 H   54.646642  -32.333624   34.792625
 H   53.192579  -32.626071   36.797018
 H   50.730507  -32.513521   36.561577
 H   53.216292  -28.749356   31.977772
