30 
5u4b_ligand_ani-2x.xyz
 C  -20.769593    0.819369  -30.589765
 C  -21.362565   -0.245195  -29.913788
 C  -21.353632   -0.275873  -28.519068
 C  -20.796754    0.777555  -27.787200
 C  -20.219479    1.846841  -28.484493
 C  -20.204013    1.869952  -29.874442
 C  -20.806695    0.803087  -26.310511
 C  -21.576066    0.038979  -25.524318
 C  -21.532583   -0.033613  -24.054412
 C  -20.468331    0.484705  -23.305903
 C  -20.458759    0.408194  -21.923581
 C  -21.523329   -0.196276  -21.254336
 C  -22.590116   -0.727684  -21.978579
 C  -22.582948   -0.645608  -23.364264
 C  -21.957587   -1.350034  -30.742370
 O  -21.461401   -0.239372  -19.896290
 O  -21.632957   -1.570319  -31.878921
 O  -22.901614   -2.108849  -30.142359
 H  -20.760344    0.801280  -31.675292
 H  -21.710462   -1.160539  -27.989535
 H  -19.781300    2.671195  -27.926696
 H  -19.748213    2.703809  -30.401318
 H  -20.141040    1.539230  -25.861768
 H  -22.340129   -0.581596  -25.993323
 H  -19.620144    0.940316  -23.812020
 H  -19.634161    0.812502  -21.343990
 H  -23.421849   -1.204958  -21.461638
 H  -23.419014   -1.060162  -23.922741
 H  -22.250496   -0.679700  -19.556320
 H  -23.145923   -1.719236  -29.291559
