30 
5u4b_ligand_dft.xyz
 C   -4.169769    1.112001   -0.229560
 C   -3.527865   -0.104441    0.010297
 C   -2.139575   -0.148654    0.127179
 C   -1.366880    1.013329    0.013048
 C   -2.035126    2.228374   -0.182438
 C   -3.419309    2.277349   -0.309531
 C    0.101146    0.997967    0.092579
 C    0.883536   -0.061275   -0.160305
 C    2.347721   -0.107488   -0.075900
 C    3.108884    0.862253    0.595647
 C    4.490470    0.793650    0.638918
 C    5.155826   -0.262758    0.011566
 C    4.421000   -1.246310   -0.648823
 C    3.034598   -1.163458   -0.683669
 C   -4.379840   -1.334819    0.113568
 O    6.511065   -0.280095    0.088538
 O   -5.456816   -1.438623   -0.412547
 O   -3.878309   -2.355577    0.844539
 H   -5.248891    1.124103   -0.337512
 H   -1.632697   -1.097505    0.287306
 H   -1.454980    3.144714   -0.254952
 H   -3.912821    3.229788   -0.475886
 H    0.559442    1.952992    0.344487
 H    0.417165   -0.987712   -0.495613
 H    2.611616    1.678788    1.110717
 H    5.074417    1.542790    1.162910
 H    4.928702   -2.076673   -1.134698
 H    2.473422   -1.935332   -1.204406
 H    6.847549   -1.055680   -0.376153
 H   -3.099346   -2.060232    1.334112
