38 
5u5t_ligand_ani-2x.xyz
 C   -1.775285    0.093041    1.121483
 C   -2.029251    1.198605    1.953500
 C   -2.966255    2.172729    1.619597
 C    0.678521   -0.602806    0.860161
 C    0.685511   -0.573059   -0.676742
 C    3.024164   -1.208834   -0.784110
 C    3.111394   -1.298056    0.741981
 C    1.739274   -1.600297    1.345821
 C    2.350574    1.090091   -1.346085
 C   -3.711323    2.093674    0.432447
 C   -3.470150    1.002082   -0.367824
 C   -2.534931    0.032794   -0.031094
 O   -4.022194    0.696615   -1.588578
 C   -3.591685   -0.629075   -1.865514
 O   -2.470906   -0.905588   -1.033866
 C   -0.713465   -0.936178    1.428737
 N    1.999520   -0.255709   -1.213520
 N    1.720151    2.121140   -0.923125
 N    3.557042    1.276907   -2.026956
 H   -1.481510    1.296920    2.888733
 H   -3.126268    3.013250    2.289750
 H    0.971002    0.397180    1.218470
 H   -0.047763    0.124396   -1.088571
 H    0.406613   -1.568010   -1.051396
 H    2.750231   -2.189258   -1.195932
 H    3.984938   -0.919700   -1.214711
 H    3.840202   -2.066422    1.025631
 H    3.486951   -0.343921    1.133389
 H    1.794609   -1.580072    2.441706
 H    1.428719   -2.619407    1.066717
 H   -4.440041    2.849223    0.156051
 H   -3.289882   -0.701948   -2.912609
 H   -4.403693   -1.335814   -1.635491
 H   -0.625218   -1.037197    2.517506
 H   -1.025257   -1.915176    1.041153
 H    0.865727    1.868286   -0.433009
 H    3.651593    0.699110   -2.853412
 H    3.678740    2.260583   -2.235487
