37 
5u62_ligand_ani-2x.xyz
 C    3.478708    0.392908    0.979715
 C    2.458593    0.321613    0.039394
 C    1.928169   -0.875795   -0.399346
 C   -0.617503   -0.917814   -0.764508
 C   -1.703574   -1.150384   -1.820390
 C   -3.073664   -1.309609   -1.160187
 C   -3.340849   -0.147244   -0.267477
 C   -0.885933    0.394981   -0.024728
 C   -4.454250    0.518587    0.140251
 C   -2.831971    1.485640    1.113198
 C    2.502544   -2.030565    0.162417
 C    3.520606   -1.963440    1.109369
 C    4.032313   -0.731431    1.545270
 O    3.764804    1.710835    1.243105
 C    3.077897    2.444020    0.239378
 O    2.075086    1.595134   -0.308448
 C    0.789871   -0.936549   -1.392270
 N   -2.283312    0.479494    0.378463
 N   -4.133806    1.544875    1.001157
 N   -2.034739    2.364177    1.846665
 H   -0.684271   -1.736451   -0.032104
 H   -1.467599   -2.041486   -2.415226
 H   -1.729655   -0.297590   -2.512698
 H   -3.087128   -2.235105   -0.568143
 H   -3.869144   -1.396600   -1.905203
 H   -0.637336    1.253576   -0.660487
 H   -0.259313    0.461342    0.866870
 H   -5.483426    0.332923   -0.140605
 H    2.145959   -3.008580   -0.154196
 H    3.931019   -2.882143    1.520164
 H    4.822566   -0.663623    2.286289
 H    3.784012    2.737132   -0.552572
 H    2.601960    3.318877    0.687778
 H    0.893546   -1.857004   -1.981065
 H    0.870310   -0.099672   -2.099722
 H   -1.469647    1.886718    2.540509
 H   -2.631245    3.038451    2.310384
