67 
5u7d_ligand_aiqm1.xyz
 C    5.085012    4.118606    2.632560
 O    5.019954    3.080466    1.655667
 C    3.777194    2.529097    1.504727
 C    3.588359    1.197348    1.851749
 C    2.709050    3.264423    0.955605
 O    2.980731    4.551425    0.616341
 C    1.938764    5.299178    0.014510
 C    1.468345    2.646373    0.798116
 C    1.295511    1.311687    1.157357
 C    2.353277    0.571890    1.674210
 C    2.165262   -0.894428    1.995421
 C    1.777968   -1.650054    0.751047
 N    2.718641   -1.734080   -0.245543
 C    2.519729   -2.346514   -1.497769
 O    3.397336   -2.385352   -2.332317
 N    0.581693   -2.131823    0.669037
 N    0.306282   -2.733353   -0.539054
 C    1.182950   -2.873085   -1.601746
 C    0.465718   -3.521005   -2.584619
 C    0.937703   -3.917970   -3.938834
 N   -0.803099   -3.759795   -2.131092
 C   -0.877414   -3.271611   -0.895059
 C   -2.101715   -3.270548   -0.028816
 C   -2.828306   -4.621726   -0.189759
 C   -3.979067   -4.792757    0.779889
 O   -3.361309   -4.769596   -1.491474
 C   -2.988833   -2.063925   -0.369314
 C   -2.307380   -0.717450   -0.148179
 C   -3.262704    0.448747   -0.404220
 C   -2.687913    1.808380   -0.099943
 C   -2.490290    2.223588    1.221744
 C   -2.007663    3.498341    1.510660
 C   -1.706988    4.385230    0.478925
 C   -1.879876    3.975449   -0.841909
 C   -2.362228    2.699333   -1.123521
 H    4.788524    3.735221    3.612436
 H    6.122457    4.440637    2.659844
 H    4.442331    4.954221    2.357110
 H    4.437264    0.655306    2.256872
 H    2.369314    6.264961   -0.229861
 H    1.102828    5.439759    0.704256
 H    1.582147    4.815845   -0.895657
 H    0.630227    3.189680    0.389803
 H    0.328226    0.839975    1.021765
 H    1.362968   -1.035257    2.717635
 H    3.087129   -1.319821    2.397346
 H    3.613389   -1.285763   -0.124051
 H    1.261030   -3.041443   -4.500743
 H    1.800003   -4.580700   -3.863517
 H    0.137897   -4.420520   -4.478025
 H   -1.761524   -3.169636    1.007911
 H   -2.087284   -5.411142    0.006139
 H   -4.777099   -4.079438    0.572800
 H   -4.390221   -5.794804    0.669129
 H   -3.645895   -4.665174    1.812152
 H   -2.629562   -4.618635   -2.105572
 H   -3.887193   -2.113737    0.252751
 H   -3.324073   -2.151610   -1.406182
 H   -1.929940   -0.668254    0.880430
 H   -1.428741   -0.624854   -0.796651
 H   -4.160799    0.305090    0.204754
 H   -3.586049    0.422023   -1.447223
 H   -2.728671    1.546941    2.035058
 H   -1.872554    3.794864    2.542600
 H   -1.337310    5.379631    0.703205
 H   -1.645327    4.647895   -1.657242
 H   -2.498186    2.394246   -2.154273
