67 
5u7d_ligand_xtb.xyz
 C    5.565571    4.048282    1.614002
 O    5.087889    2.748133    1.879426
 C    3.776094    2.421350    1.725278
 C    3.491577    1.096777    2.047815
 C    2.725798    3.249639    1.284870
 O    3.010319    4.551824    0.961039
 C    1.960981    5.385844    0.537328
 C    1.447340    2.711256    1.196566
 C    1.187148    1.394259    1.526506
 C    2.213154    0.572513    1.962938
 C    1.947098   -0.882143    2.263249
 C    1.649252   -1.572265    0.969166
 N    2.639781   -1.576761    0.025158
 C    2.500763   -2.103627   -1.266317
 O    3.416947   -2.049148   -2.055398
 N    0.487049   -2.074720    0.780966
 N    0.264202   -2.617581   -0.436720
 C    1.194270   -2.665296   -1.470470
 C    0.536740   -3.276811   -2.523958
 C    1.063070   -3.589892   -3.873555
 N   -0.725794   -3.575501   -2.141053
 C   -0.873819   -3.175328   -0.890546
 C   -2.109013   -3.305256   -0.070340
 C   -2.750186   -4.687906   -0.360066
 C   -3.941048   -4.980693    0.547248
 O   -3.181167   -4.784252   -1.690345
 C   -3.075736   -2.150569   -0.375910
 C   -2.428620   -0.780101   -0.192121
 C   -3.467745    0.340137   -0.316505
 C   -2.842289    1.692621   -0.133836
 C   -2.750875    2.266127    1.128494
 C   -2.188996    3.518793    1.298183
 C   -1.703482    4.215187    0.203784
 C   -1.766676    3.642804   -1.055666
 C   -2.330280    2.390241   -1.220710
 H    5.092181    4.792086    2.257747
 H    6.632603    4.005269    1.832236
 H    5.418792    4.327868    0.569109
 H    4.320198    0.492404    2.385653
 H    2.422505    6.353197    0.343008
 H    1.198473    5.497602    1.314667
 H    1.495322    5.015214   -0.381206
 H    0.625557    3.320342    0.858810
 H    0.180884    1.014690    1.437554
 H    1.081817   -0.994769    2.915871
 H    2.818218   -1.338031    2.736623
 H    3.519222   -1.121040    0.234213
 H    2.078180   -3.214364   -3.963588
 H    1.056784   -4.666663   -4.035302
 H    0.431916   -3.135605   -4.635113
 H   -1.812480   -3.256794    0.982138
 H   -1.969364   -5.447343   -0.166038
 H   -4.771373   -4.329833    0.292082
 H   -4.260029   -6.007727    0.394709
 H   -3.670747   -4.841619    1.590220
 H   -2.436364   -4.510301   -2.253602
 H   -3.930204   -2.229888    0.297166
 H   -3.437425   -2.260478   -1.399636
 H   -1.954478   -0.729332    0.791185
 H   -1.650602   -0.626823   -0.943570
 H   -4.243085    0.190397    0.438052
 H   -3.935662    0.280122   -1.301271
 H   -3.137527    1.731725    1.984808
 H   -2.135361    3.955826    2.284994
 H   -1.285364    5.204229    0.329826
 H   -1.384645    4.178519   -1.912979
 H   -2.387262    1.953183   -2.207464
