52 
5u7i_ligand_dft.xyz
 N    0.866736   -0.976936    1.205140
 C    1.734550    2.169232   -0.349085
 N    2.574860   -2.434147    0.798144
 C    3.915223   -0.803935   -0.824825
 C    2.738532   -0.294940   -0.243361
 C    2.051722   -1.222153    0.581149
 C   -3.236536   -1.197133    0.280675
 C    5.649977    0.146701   -2.363778
 C    3.723759   -2.755709    0.184728
 N    3.700045    1.318833   -1.495384
 C   -4.172097   -1.944468   -0.443988
 C   -5.533919    0.027133   -0.748296
 C   -6.951149    1.890792   -1.111460
 C    3.190806    3.100330    1.503856
 C    1.805164    2.564723    1.139401
 C    0.716590    3.588745    1.465389
 C    2.675144    1.062178   -0.705713
 N    4.443212   -2.026756   -0.650038
 C   -0.285616   -0.208710    0.722972
 C   -1.205738   -1.186228    1.495172
 C    0.038355   -2.041664    1.782476
 O   -2.147328   -1.888423    0.735219
 C   -3.456725    0.159079    0.483867
 C   -4.605959    0.771572   -0.029515
 C   -5.304931   -1.340476   -0.951294
 O   -6.679554    0.521084   -1.290598
 N    4.441748    0.186412   -1.576418
 H    1.999170    3.035508   -0.966332
 H    0.705941    1.897626   -0.613037
 H    6.352809    0.904645   -2.008962
 H    6.086011   -0.846516   -2.248583
 H    5.419152    0.331201   -3.415992
 H    4.099039   -3.754014    0.399204
 H   -3.987810   -3.002694   -0.596515
 H   -7.047911    2.147700   -0.048076
 H   -6.172576    2.519552   -1.563818
 H   -7.900780    2.079403   -1.613685
 H    3.421734    4.001823    0.923147
 H    3.240377    3.359882    2.566855
 H    3.971603    2.362213    1.296737
 H    1.626932    1.662440    1.741629
 H    0.735514    3.861628    2.525921
 H    0.861228    4.505509    0.880566
 H   -0.284449    3.203909    1.233621
 H   -0.425791   -0.259302   -0.363573
 H   -0.307094    0.831707    1.055571
 H   -1.671270   -0.744241    2.383808
 H    0.261685   -2.265096    2.828176
 H    0.059699   -2.964618    1.195423
 H   -2.751293    0.767613    1.039087
 H   -4.749592    1.831529    0.145481
 H   -6.036383   -1.910954   -1.513946
