52 
5u7i_ligand_ani-2x.xyz
 N    9.484979   -6.196854   -7.201103
 C    7.704306   -4.707269   -4.407524
 N    8.463551   -5.502933   -9.120792
 C    6.568108   -4.089965   -7.898112
 C    7.494190   -4.754504   -7.069878
 C    8.479891   -5.505665   -7.781247
 C   10.638245   -9.997977   -5.610716
 C    4.592931   -2.618858   -7.494563
 C    7.507990   -4.809005   -9.752465
 N    6.025385   -3.604281   -5.785425
 C   10.428655  -11.370842   -5.784897
 C   11.037485  -11.773588   -3.486519
 C   11.620918  -12.264902   -1.247777
 C    8.735893   -2.422155   -3.999831
 C    8.996983   -3.925034   -4.102938
 C    9.631473   -4.447525   -2.815191
 C    7.091649   -4.383711   -5.736861
 N    6.529612   -4.086437   -9.239389
 C    9.582168   -6.969165   -5.953761
 C   10.662519   -7.839677   -6.625587
 C   10.382073   -7.093743   -7.933762
 O   10.410342   -9.224722   -6.715920
 C   11.050927   -9.523189   -4.373063
 C   11.248553  -10.412130   -3.312763
 C   10.624884  -12.247900   -4.736601
 O   11.203254  -12.715098   -2.517000
 N    5.712695   -3.433585   -7.083756
 H    6.959268   -4.474572   -3.637888
 H    7.900097   -5.784530   -4.343946
 H    4.942472   -1.778725   -8.102863
 H    3.901582   -3.213503   -8.099598
 H    4.098277   -2.257236   -6.592464
 H    7.549083   -4.854383  -10.840019
 H   10.111422  -11.728952   -6.760423
 H   12.601660  -11.773543   -1.298527
 H   10.893897  -11.568434   -0.809362
 H   11.693909  -13.154217   -0.620170
 H    8.023081   -2.215706   -3.190727
 H    9.661920   -1.882109   -3.772720
 H    8.321044   -2.007199   -4.923603
 H    9.695040   -4.090772   -4.937900
 H   10.553667   -3.905947   -2.576054
 H    8.941815   -4.320528   -1.970957
 H    9.875731   -5.513934   -2.885874
 H    8.679004   -7.522697   -5.670596
 H    9.949091   -6.374090   -5.112498
 H   11.669748   -7.655428   -6.235151
 H   11.222967   -6.573188   -8.401187
 H    9.862608   -7.701735   -8.679337
 H   11.229074   -8.465702   -4.202854
 H   11.575687  -10.015846   -2.357058
 H   10.465498  -13.315907   -4.856883
