46 
5u7j_ligand_ani-2x.xyz
 N    7.552557    4.603071    6.194077
 C    7.835104    4.457813    3.655828
 N    5.585740    3.602894    6.350327
 C    8.651030    5.253526    6.720527
 C    6.560232    4.143092    7.047999
 C    6.734276    4.306068    8.460268
 C   10.159825    7.665880    3.056814
 C    8.746968    5.357035    8.090903
 C   10.616464   10.780809    6.633929
 C    9.567166   10.155013    4.123578
 C    8.686258    2.067754    3.707720
 C    9.053506    3.532406    3.464221
 C    9.612172    3.711658    2.053561
 C    7.098122    4.267892    4.934535
 N    5.929283    3.690557    5.039254
 N    7.793052    4.884725    8.953111
 O    9.507636    5.721527    5.815167
 C   10.640733    6.444622    6.326646
 C   11.421852    6.985738    5.141049
 C   10.642230    7.980968    4.321034
 C    9.379350    8.557949    2.323757
 C    9.082590    9.800134    2.865819
 C   10.350227    9.250991    4.840100
 O   10.893077    9.522910    6.061694
 H    7.104961    4.255054    2.863268
 H    8.144824    5.503130    3.558075
 H    5.968097    3.934807    9.132525
 H   10.399334    6.691565    2.637278
 H    9.601230    5.827108    8.566251
 H   10.995718   11.599697    6.008478
 H    9.538887   10.919944    6.792689
 H   11.129306   10.794623    7.596638
 H    9.332451   11.131596    4.533885
 H    7.896046    1.745588    3.015807
 H    9.555848    1.420148    3.552844
 H    8.319246    1.905936    4.727958
 H    9.817458    3.825264    4.193670
 H   10.507331    3.099198    1.897617
 H    8.864949    3.411116    1.307359
 H    9.878443    4.755485    1.849930
 H   11.261618    5.766434    6.925141
 H   10.296872    7.264879    6.961027
 H   11.716152    6.142632    4.506652
 H   12.336147    7.447271    5.530761
 H    9.009031    8.281358    1.340213
 H    8.473101   10.508834    2.310318
