66 
5ubt_ligand_xtb.xyz
 C   35.819133   15.005983   32.429756
 C   35.309011   16.190160   31.837216
 N   36.103907   17.228895   31.618753
 C   37.542531   13.778608   33.194622
 C   36.384974   13.004040   33.248508
 C   35.303006   13.754365   32.780340
 C   33.917523   13.337979   32.709192
 C   38.886675   13.389888   33.587664
 N   37.973078   16.046066   32.465864
 C   31.728333   13.093105   32.848219
 N   37.181095   14.989563   32.701407
 C   37.389041   17.085720   31.956221
 N   34.027425   16.286395   31.450270
 N   33.505594   12.174846   32.147317
 N   32.186326   12.025212   32.226346
 C   32.770418   13.966109   33.175561
 C   34.308046   11.167411   31.499231
 C   33.744122   10.840853   30.113919
 C   34.560896    9.706098   29.492913
 O   34.568500    8.554830   30.301791
 C   35.117684    8.808330   31.571771
 C   34.332187    9.879811   32.329211
 C   39.192231   12.037410   33.751097
 C   40.465534   11.664275   34.135491
 C   41.444569   12.610184   34.363455
 C   41.167726   13.970478   34.193486
 C   39.881253   14.340531   33.805352
 N   42.153087   14.912237   34.476705
 C   41.803934   16.309717   34.593232
 C   42.843081   17.007499   35.484363
 N   44.167317   16.830891   34.943898
 C   44.509474   15.431583   34.797740
 C   43.475379   14.746462   33.905096
 C   44.974467   17.781348   34.412308
 C   44.507071   19.217540   34.532243
 O   46.033685   17.494002   33.888275
 H   36.325125   12.007658   33.639212
 H   30.679341   13.201932   33.039100
 H   38.026523   17.939782   31.777134
 H   33.369013   15.556492   31.668012
 H   33.717927   17.163872   31.071501
 H   32.708855   14.885969   33.722576
 H   35.323746   11.569011   31.401472
 H   33.781327   11.719467   29.468282
 H   32.704807   10.531245   30.228059
 H   35.594850   10.049357   29.322034
 H   34.129484    9.396912   28.539178
 H   36.168383    9.127193   31.468364
 H   35.088063    7.856425   32.105245
 H   33.304314    9.546070   32.478357
 H   34.787906   10.055951   33.304618
 H   38.445037   11.281719   33.569006
 H   40.698355   10.617527   34.267498
 H   42.422541   12.291844   34.690103
 H   39.637637   15.375199   33.640553
 H   40.826361   16.400350   35.067491
 H   41.773856   16.808283   33.610263
 H   42.813498   16.546099   36.479274
 H   42.595303   18.061976   35.581021
 H   44.516783   14.961036   35.786751
 H   45.503955   15.373244   34.353561
 H   43.517948   15.204638   32.902691
 H   43.713042   13.689225   33.806429
 H   45.277994   19.854381   34.107161
 H   43.581500   19.371330   33.982012
 H   44.357815   19.490591   35.574308
