39 
5uez_ligand_xtb.xyz
 C   13.626384   12.932175   -7.100002
 C   17.453023   12.125960   -3.282842
 C   16.099994   12.267829   -1.312602
 C   12.929966   10.478945   -6.027419
 C   14.064228   12.593550   -5.832372
 C   14.986445   11.842474   -2.028092
 C   11.312341   12.071832   -1.246782
 C   12.481256   12.280989   -1.914686
 C   12.610921   10.160077    1.659664
 C   12.847265   12.055468   -7.835157
 C   17.324841   12.417426   -1.934487
 C   12.497105   10.830450   -7.291103
 C   16.363994   11.673396   -4.003643
 C   13.722450   11.357823   -5.293709
 C   15.127744   11.527783   -3.384457
 C   13.683422   11.706475   -1.360017
 C   11.276388   11.330817   -0.012631
 C   11.484790   13.575496   -3.628121
 N   13.657105   11.067167   -0.232521
 N   12.527159   10.891685    0.416674
 O   10.284035   11.091215    0.652553
 O   14.057023   10.965667   -4.027467
 O   12.633385   13.020071   -3.030167
 H   13.894726   13.893796   -7.512703
 H   18.407673   12.236902   -3.774862
 H   15.983451   12.489103   -0.263089
 H   12.663393    9.530476   -5.587464
 H   14.654136   13.287844   -5.252522
 H   10.365308   12.457548   -1.587866
 H   12.320595   10.806038    2.489438
 H   11.922450    9.315208    1.630486
 H   13.635117    9.819497    1.782080
 H   12.510993   12.326862   -8.824208
 H   18.179304   12.758916   -1.370507
 H   11.884679   10.142695   -7.854978
 H   16.465823   11.412853   -5.047317
 H   10.775536   12.796109   -3.920823
 H   10.992615   14.285654   -2.956921
 H   11.837236   14.093729   -4.518156
