45 
5uig_ligand_xtb.xyz
 C  145.470123   37.215297   16.700354
 C  145.844607   36.380604   17.842151
 C  147.494582   33.751789   19.323980
 C  147.558083   33.322121   20.643761
 C  148.328680   32.215554   20.949271
 C  149.024171   31.548992   19.956105
 C  148.962025   31.977008   18.632307
 C  149.719365   31.244156   17.567198
 C  148.191346   33.084708   18.321840
 C  145.427284   36.498591   19.199474
 C  148.365176   40.655736   18.157035
 O  147.236016   40.320968   17.388532
 C  147.358939   40.270315   16.026557
 C  148.525447   40.565962   15.334646
 C  148.550600   40.498753   13.951239
 C  147.418477   40.140041   13.247096
 C  146.255587   39.838763   13.936656
 C  146.206444   39.897615   15.317858
 C  144.946708   39.547625   16.075842
 N  145.138244   38.508423   17.067989
 N  145.403651   36.687378   15.551937
 N  146.653183   35.334694   17.772220
 N  146.724147   34.859575   18.991551
 N  145.997130   35.521761   19.888327
 N  144.634307   37.461275   19.772519
 H  147.007207   33.856698   21.400169
 H  148.386646   31.870440   21.970927
 H  149.622851   30.684984   20.205762
 H  150.787030   31.260199   17.782796
 H  149.404543   30.202265   17.527766
 H  149.553239   31.695993   16.593352
 H  148.112466   33.448587   17.309503
 H  149.178380   39.938408   18.008771
 H  148.721546   41.665519   17.930002
 H  148.036827   40.616127   19.194957
 H  149.422041   40.849596   15.862636
 H  149.466633   40.729887   13.428470
 H  147.437816   40.087837   12.169600
 H  145.367533   39.555278   13.389473
 H  144.170010   39.225304   15.375005
 H  144.582011   40.431738   16.607961
 H  145.593999   38.839652   17.906534
 H  145.155329   37.323811   14.801317
 H  143.930919   37.839729   19.154930
 H  144.285751   37.199041   20.682727
