46 
5uit_ligand_xtb.xyz
 N   -4.410631    0.934792   -2.055532
 C   -1.786408    0.534538   -0.731494
 N    2.303786   -2.153428    2.151937
 C   -0.914905    2.796094    0.734940
 C   -0.213409    1.571900    0.787857
 C    0.675771    3.688861    2.284456
 C    4.019902   -1.223185    0.903069
 C   -0.432633    3.876061    1.512387
 C   -3.731017    2.017271   -1.625438
 C   -2.053142    2.853767   -0.084220
 O   -4.115274    3.148654   -1.854650
 C   -2.500718    1.768293   -0.802080
 O   -2.268647   -0.514811   -1.445474
 C   -1.540275   -1.744244   -1.536277
 C   -2.537635   -2.784134   -2.034576
 C   -0.359877   -1.605963   -2.493810
 N    1.359409    2.528515    2.347404
 C    0.941220    1.525959    1.626891
 C   -0.655720    0.463331    0.052376
 O    1.608760    0.358904    1.646397
 C    2.693068    0.231705    2.544773
 C    3.329716   -1.144470    2.275128
 C    1.899356   -2.363631    0.876779
 O    0.910347   -2.974716    0.543924
 C    2.922246   -1.713063   -0.040141
 H   -5.217253    1.090927   -2.637125
 H   -4.034094    0.008317   -1.951038
 H    1.682733   -2.353132    2.920715
 H    1.081915    4.475662    2.904806
 H    4.431250   -0.261880    0.603953
 H    4.831566   -1.949278    0.947878
 H   -0.946772    4.823499    1.490316
 H   -2.611053    3.775253   -0.167060
 H   -1.181696   -2.044991   -0.545210
 H   -2.914242   -2.504895   -3.016162
 H   -3.375313   -2.863799   -1.346055
 H   -2.047703   -3.750248   -2.103187
 H    0.243353   -2.507541   -2.451355
 H   -0.716069   -1.455324   -3.510571
 H    0.260707   -0.756951   -2.217673
 H   -0.091273   -0.449455    0.140346
 H    2.321997    0.296810    3.575416
 H    3.413908    1.041898    2.393350
 H    4.013890   -1.381672    3.095799
 H    2.435103   -0.887712   -0.559653
 H    3.275259   -2.422687   -0.786416
