53 
5upe_ligand_ani-2x.xyz
 N   14.012147    2.781235   -2.730004
 C   13.573897    4.680795   -1.271764
 C   12.587160    5.515803   -0.747663
 C   12.825620    6.318999    0.356570
 C   13.208053    3.847731   -2.459153
 C   13.680229    1.871063   -3.815510
 C   15.571809    2.695951   -5.341385
 C   16.755509    2.643073   -8.967239
 C   16.037937    4.875311   -8.432802
 C   15.388240    8.179462    4.567399
 C   16.486003   10.232223    7.514010
 C   15.500284   11.245725    7.376941
 C   14.565180   11.200680    6.365176
 C   13.825804    9.778608    4.359909
 O   12.226271    4.106376   -3.143450
 C   14.075463    2.400160   -5.196833
 C   15.941912    3.142703   -6.737235
 C   15.735721    4.464796   -7.138474
 C   16.549317    3.963914   -9.352514
 C   16.453475    2.238738   -7.669314
 C   14.839811    4.681808   -0.682243
 C   15.095189    5.484408    0.417888
 C   14.091173    6.302829    0.946779
 N   14.420873    7.070675    2.080684
 C   13.668783    8.039330    2.683184
 O   12.571445    8.422371    2.337406
 N   14.310073    8.614818    3.812669
 C   14.599215   10.119536    5.450161
 C   15.600823    9.090831    5.586223
 C   16.545881    9.166784    6.641111
 H   14.679348    2.485325   -2.036470
 H   11.614237    5.526330   -1.230439
 H   12.052099    6.958808    0.759007
 H   12.600533    1.693735   -3.803507
 H   14.181578    0.918802   -3.613017
 H   16.147327    1.797672   -5.080052
 H   15.854121    3.471866   -4.619526
 H   17.155457    1.923556   -9.678100
 H   15.873109    5.909880   -8.724316
 H   15.886781    7.233664    4.379195
 H   17.204954   10.302689    8.325496
 H   15.487066   12.068833    8.085874
 H   13.811346   11.978013    6.264617
 H   12.959479   10.252288    3.916660
 H   13.495421    3.307510   -5.398479
 H   13.774160    1.658403   -5.946865
 H   15.332430    5.184760   -6.427037
 H   16.785514    4.282451  -10.364896
 H   16.623164    1.203703   -7.377715
 H   15.651347    4.081498   -1.088573
 H   16.080450    5.471013    0.878261
 H   15.380793    6.999694    2.377926
 H   17.304490    8.396169    6.758828
