53 
5upe_ligand_xtb.xyz
 N   13.499505    3.074563   -2.934017
 C   13.015506    4.765958   -1.302865
 C   12.076303    5.116599   -0.337727
 C   12.420911    5.895300    0.748563
 C   12.565067    3.931100   -2.456013
 C   13.263111    2.228008   -4.079181
 C   15.539249    2.614052   -5.163233
 C   17.126723    2.460720   -8.598237
 C   17.103554    4.742715   -7.875519
 C   15.566638    8.407792    4.063009
 C   17.001005   10.561391    6.743615
 C   15.762511   11.047131    7.235566
 C   14.576711   10.659582    6.691823
 C   13.608145    9.159807    4.853956
 O   11.440002    4.000585   -2.909964
 C   14.016627    2.705836   -5.322808
 C   16.221291    3.022604   -6.438022
 C   16.510621    4.358115   -6.686325
 C   17.413607    3.794145   -8.834811
 C   16.533166    2.079297   -7.408240
 C   14.316667    5.243529   -1.177781
 C   14.667582    6.033593   -0.102120
 C   13.727548    6.358341    0.875252
 N   14.159752    7.148742    1.944593
 C   13.431767    7.614706    2.995463
 O   12.250033    7.456754    3.169124
 N   14.203019    8.356870    3.918928
 C   14.595583    9.749339    5.611231
 C   15.855321    9.258882    5.108649
 C   17.063919    9.686049    5.703511
 H   14.404580    3.031590   -2.496566
 H   11.063174    4.764318   -0.455559
 H   11.686633    6.152993    1.492557
 H   12.187274    2.261625   -4.267210
 H   13.553525    1.200869   -3.834897
 H   15.812690    1.587560   -4.907692
 H   15.863071    3.269957   -4.352135
 H   17.366408    1.715602   -9.342795
 H   17.324584    5.785010   -8.053991
 H   16.242084    7.812921    3.480421
 H   17.909660   10.904551    7.216765
 H   15.778074   11.741063    8.063302
 H   13.633534   11.028271    7.065805
 H   12.541503    9.246025    4.889543
 H   13.734644    3.738561   -5.535640
 H   13.709644    2.093050   -6.172101
 H   16.270597    5.103199   -5.940533
 H   17.877703    4.092863   -9.763056
 H   16.311771    1.036681   -7.227751
 H   15.059062    5.030795   -1.933809
 H   15.678955    6.407880   -0.018474
 H   15.129648    7.428087    1.894700
 H   18.008238    9.317826    5.330093
