53 
5upe_ligand_dft.xyz
 N   -3.485931    1.788177    1.160761
 C   -1.323305    1.572916    0.072163
 C   -0.404792    2.224879   -0.749936
 C    0.930892    1.850420   -0.788552
 C   -2.748190    2.041914    0.043034
 C   -4.887562    2.167111    1.241217
 C   -5.736425   -0.237144    1.067735
 C   -8.703489   -2.390363    0.017582
 C   -6.988832   -2.577630   -1.659827
 C    5.314116   -0.407108    0.867269
 C    8.725244   -1.897601    1.236947
 C    9.163836   -1.629908   -0.103034
 C    8.357407   -1.000408   -1.003463
 C    6.020479    0.048351   -1.237783
 O   -3.215208    2.621640   -0.927441
 C   -5.807531    1.189180    0.508915
 C   -6.611313   -1.196349    0.297629
 C   -6.175147   -1.726810   -0.919427
 C   -8.257389   -2.912861   -1.192505
 C   -7.884995   -1.538281    0.754358
 C   -0.882666    0.497788    0.845943
 C    0.446646    0.105237    0.813286
 C    1.363885    0.782138    0.003306
 N    2.698664    0.335830    0.043440
 C    3.747096    0.769524   -0.718292
 O    3.696513    1.567625   -1.625834
 N    4.978439    0.154712   -0.350604
 C    7.050578   -0.604632   -0.590295
 C    6.604408   -0.886701    0.753633
 C    7.482589   -1.540598    1.668730
 H   -3.022355    1.452672    1.988668
 H   -0.758542    3.039728   -1.372794
 H    1.630638    2.365543   -1.431266
 H   -4.999011    3.167422    0.811905
 H   -5.152859    2.221025    2.302518
 H   -6.031726   -0.230913    2.125534
 H   -4.694508   -0.578981    1.030106
 H   -9.690637   -2.647330    0.391119
 H   -6.631466   -2.981428   -2.602727
 H    4.671664   -0.320370    1.730454
 H    9.408227   -2.398776    1.916578
 H   10.163239   -1.938434   -0.394757
 H    8.695717   -0.798116   -2.015306
 H    5.918059    0.433366   -2.239784
 H   -5.537290    1.186591   -0.552494
 H   -6.838360    1.558804    0.573504
 H   -5.185604   -1.466906   -1.289282
 H   -8.893502   -3.578652   -1.768179
 H   -8.239313   -1.133667    1.699915
 H   -1.579283   -0.071307    1.455649
 H    0.772159   -0.740771    1.414055
 H    2.871715   -0.473899    0.620830
 H    7.161157   -1.749149    2.684973
