47 
5upj_ligand_ani-2x.xyz
 C   -0.937186   -0.845997    0.045522
 C   -0.453173   -1.919014   -0.818191
 O   -1.123281   -2.560066   -1.591333
 O    0.893458   -2.217803   -0.749603
 C    1.730346   -1.641617    0.158379
 C    1.319991   -0.619233    0.949841
 C   -0.030618   -0.197173    0.850420
 O   -0.358268    0.860682    1.632080
 C   -2.796632    0.884482   -0.152223
 C   -2.458953    1.476954   -1.374606
 C   -2.768618    2.806597   -1.638482
 C   -3.430114    3.573451   -0.682813
 C   -3.776162    2.997409    0.535886
 C   -3.462577    1.664091    0.798737
 C   -2.428590   -0.590518    0.041791
 C   -3.139742   -1.241210    1.244768
 C   -3.023800   -2.762750    1.263919
 C    3.119268   -2.176507    0.071318
 C    4.029189   -1.366563   -0.873653
 C    4.474874    0.024710   -0.394628
 C    3.391415    1.120857   -0.355811
 C    2.805641    1.419535    1.031567
 C    2.284090    0.185628    1.782188
 H   -1.174944    1.267043    1.301904
 H   -1.937824    0.883535   -2.125417
 H   -2.493808    3.244355   -2.595088
 H   -3.673800    4.612796   -0.886277
 H   -4.289108    3.588562    1.290436
 H   -3.753316    1.239194    1.758657
 H   -2.791856   -1.110439   -0.854225
 H   -2.737453   -0.835652    2.183128
 H   -4.197776   -0.951756    1.198530
 H   -1.993135   -3.087287    1.445446
 H   -3.646452   -3.184195    2.060108
 H   -3.353638   -3.198800    0.314033
 H    3.576057   -2.204673    1.067833
 H    3.064287   -3.208361   -0.288103
 H    4.931342   -1.964503   -1.052007
 H    3.530456   -1.273106   -1.848913
 H    5.272685    0.349893   -1.074189
 H    4.950870   -0.059712    0.592797
 H    3.811503    2.056964   -0.744756
 H    2.579394    0.851494   -1.045499
 H    3.565719    1.909244    1.653467
 H    1.983386    2.134629    0.915830
 H    1.783073    0.503433    2.699699
 H    3.133381   -0.438605    2.080035
