47 
5upj_ligand_xtb.xyz
 C   -0.995417   -0.927228    0.100584
 C   -0.508375   -1.947852   -0.793930
 O   -1.175480   -2.565979   -1.593517
 O    0.834946   -2.234040   -0.733147
 C    1.684053   -1.590301    0.085969
 C    1.271056   -0.608105    0.923648
 C   -0.123134   -0.264486    0.919026
 O   -0.495319    0.723086    1.756837
 C   -2.729598    0.824769   -0.169901
 C   -2.203774    1.392876   -1.328883
 C   -2.366997    2.737207   -1.599063
 C   -3.064038    3.544433   -0.713924
 C   -3.595727    2.992979    0.436595
 C   -3.428481    1.644127    0.710443
 C   -2.485451   -0.651038    0.063569
 C   -3.187137   -1.238033    1.298241
 C   -2.988961   -2.747157    1.384254
 C    3.090674   -2.088799   -0.051424
 C    3.954441   -1.234643   -0.991879
 C    4.366768    0.132190   -0.442684
 C    3.228533    1.160204   -0.366881
 C    2.709672    1.428885    1.046002
 C    2.216332    0.175161    1.780381
 H   -1.425976    0.949600    1.604667
 H   -1.667031    0.761661   -2.022565
 H   -1.953234    3.157544   -2.503727
 H   -3.194656    4.595407   -0.923595
 H   -4.145758    3.611816    1.130311
 H   -3.861828    1.240079    1.613413
 H   -2.861368   -1.193374   -0.813332
 H   -2.806644   -0.779842    2.215491
 H   -4.255579   -1.023192    1.225616
 H   -1.941689   -2.990213    1.550299
 H   -3.571037   -3.158855    2.205730
 H   -3.302563   -3.225151    0.459812
 H    3.566510   -2.146229    0.928155
 H    3.030444   -3.096208   -0.467244
 H    4.862767   -1.803451   -1.204299
 H    3.422910   -1.101072   -1.935952
 H    5.144914    0.518605   -1.104728
 H    4.821367    0.008419    0.541582
 H    3.577678    2.113489   -0.769613
 H    2.402371    0.832200   -0.999943
 H    3.500085    1.890027    1.641883
 H    1.885112    2.141462    0.978473
 H    1.699205    0.485094    2.688801
 H    3.065013   -0.446075    2.062950
