46 
5uqx_ligand_xtb.xyz
 C   32.396369    3.634624   -0.518368
 C   31.230945    8.098066    0.268792
 C   33.699993    3.755788   -0.056699
 C   29.285965    7.823970    2.219544
 C   33.279294    5.725601    0.999142
 C   31.938715    5.728095    0.555853
 C   31.068218    6.872674    0.904755
 C   30.088838    6.752697    1.887002
 C   29.449428    9.045401    1.571768
 C   30.428896    9.176519    0.595114
 C   31.489914    4.664198   -0.212711
 C   30.158669    5.333650   -2.195441
 C   30.111281    4.683776   -0.810927
 N   34.134721    4.761288    0.678382
 O   28.636587   10.076314    1.927033
 N   33.750241    6.700755    1.826699
 C   32.028983    2.453586   -1.311494
 C   32.666300    2.168824   -2.517402
 C   32.306504    1.034494   -3.220698
 C   31.319495    0.208227   -2.694008
 N   30.721303    0.459526   -1.530478
 C   31.069207    1.541615   -0.866080
 C   30.899218   -1.022759   -3.435102
 O   31.374253   -1.336317   -4.511643
 N   29.954214   -1.726906   -2.784879
 C   29.391570   -2.949651   -3.289886
 H   31.988105    8.206743   -0.495491
 H   34.435555    2.994536   -0.283347
 H   28.524538    7.738332    2.978142
 H   29.961854    5.807947    2.394855
 H   30.560995   10.123634    0.087921
 H   30.521709    6.356328   -2.120755
 H   30.822217    4.776443   -2.853725
 H   29.165842    5.349844   -2.638434
 H   29.435717    5.252924   -0.171292
 H   29.724105    3.669664   -0.909559
 H   28.845751   10.857425    1.400932
 H   33.236593    7.561417    1.899949
 H   34.746146    6.726467    1.959975
 H   33.426564    2.838554   -2.894308
 H   32.762058    0.769511   -4.161718
 H   30.570967    1.686528    0.085087
 H   29.647278   -1.355884   -1.896610
 H   28.313628   -2.850572   -3.435076
 H   29.867111   -3.156451   -4.247970
 H   29.583550   -3.778146   -2.604645
