54 
5ur9_ligand_aiqm1.xyz
 C   -0.731079   -0.982998   -0.176694
 C   -1.395149    2.314504    1.387408
 C   -0.915100    3.599975    1.633290
 O    1.490617   -0.630484    0.496922
 C    2.836170   -0.306044    0.323708
 O   -4.251820   -0.292467   -2.681997
 C   -3.801918   -0.076348   -1.431437
 O   -4.530290    0.067244   -0.483145
 C   -2.305201   -0.078624   -1.385837
 C   -1.663574    0.276165   -0.023397
 C   -1.103773    1.655411    0.189711
 C   -0.323496    2.317729   -0.766742
 C    0.158441    3.598866   -0.518841
 C   -0.134856    4.244898    0.678245
 C    0.679980   -0.668327   -0.582070
 O    1.043856   -0.458713   -1.710688
 C    3.628431   -1.007674   -0.537995
 C    5.004275   -0.685156   -0.625569
 C    5.540604    0.310369    0.149490
 C    4.724745    1.035769    1.056861
 C    5.249472    2.067843    1.876832
 C    4.438600    2.750780    2.746950
 C    3.060491    2.435520    2.839597
 C    2.520246    1.443089    2.061536
 C    3.343230    0.726710    1.152858
 C   -1.612803   -1.484004   -1.363138
 C   -2.490004   -2.676011   -1.100844
 C   -2.656118   -3.622451   -2.115722
 C   -3.472741   -4.736205   -1.933256
 C   -4.133649   -4.921172   -0.722825
 C   -3.973408   -3.988190    0.296873
 C   -3.157871   -2.874701    0.114602
 H   -0.701767   -1.622855    0.703131
 H   -2.012774    1.819785    2.128107
 H   -1.157522    4.093640    2.565107
 H   -5.215120   -0.329777   -2.629435
 H   -1.916310    0.522579   -2.204402
 H   -2.387604    0.060784    0.763761
 H   -0.073807    1.831995   -1.701230
 H    0.767897    4.092104   -1.264088
 H    0.240041    5.241923    0.864481
 H    3.195822   -1.772252   -1.167524
 H    5.631159   -1.233405   -1.317322
 H    6.593219    0.556364    0.078109
 H    6.304060    2.306344    1.805254
 H    4.849391    3.536062    3.368689
 H    2.436531    2.985187    3.532606
 H    1.467142    1.195694    2.117231
 H   -1.030039   -1.652588   -2.269073
 H   -2.144665   -3.478222   -3.060219
 H   -3.589554   -5.452470   -2.735766
 H   -4.770477   -5.783026   -0.575550
 H   -4.488466   -4.122956    1.238959
 H   -3.063161   -2.149914    0.914690
