54 
5ura_ligand_xtb.xyz
 C   -0.943801   -0.940942    0.187817
 C    0.275028    1.524563   -1.465519
 C    1.147225    2.562288   -1.740368
 O    1.298076   -0.561218    0.712188
 C    2.678264   -0.500479    0.538402
 O   -4.417579    0.692299   -0.090505
 C   -3.886495    0.150825   -1.022543
 O   -4.570985   -0.330059   -2.065910
 C   -2.408989   -0.081832   -1.179781
 C   -1.532220    0.482457   -0.046293
 C   -0.598860    1.602387   -0.385962
 C   -0.600572    2.757784    0.387326
 C    0.259014    3.803723    0.101245
 C    1.144320    3.703636   -0.957181
 C    0.503729   -1.119044   -0.209173
 O    0.876166   -1.676875   -1.206818
 C    3.410479   -1.534136    0.018688
 C    4.800205   -1.401993   -0.124053
 C    5.435366   -0.252754    0.249280
 C    4.708144    0.821395    0.804339
 C    5.333558    2.018992    1.208685
 C    4.606198    3.041923    1.750017
 C    3.220239    2.911236    1.920125
 C    2.581342    1.764721    1.538904
 C    3.303642    0.700492    0.964829
 C   -1.931703   -1.526378   -0.838894
 C   -2.990015   -2.450818   -0.321050
 C   -3.646248   -2.206801    0.880888
 C   -4.643354   -3.057972    1.322380
 C   -5.000352   -4.164512    0.570899
 C   -4.352938   -4.416045   -0.626278
 C   -3.355849   -3.564575   -1.067535
 H   -1.056820   -1.295616    1.212986
 H    0.285018    0.647595   -2.095286
 H    1.831035    2.478743   -2.572185
 H   -5.524041   -0.202579   -1.936086
 H   -2.113981    0.227268   -2.182296
 H   -2.162843    0.782758    0.793853
 H   -1.284329    2.838059    1.220662
 H    0.240534    4.695566    0.710287
 H    1.826757    4.511791   -1.173973
 H    2.927827   -2.446633   -0.290588
 H    5.358903   -2.226887   -0.539693
 H    6.504022   -0.149678    0.129503
 H    6.402905    2.110833    1.082901
 H    5.094830    3.955801    2.054928
 H    2.659029    3.723779    2.356682
 H    1.516608    1.655727    1.670177
 H   -1.409351   -1.995850   -1.674687
 H   -3.391883   -1.341638    1.474000
 H   -5.145579   -2.853393    2.256460
 H   -5.779923   -4.826982    0.916947
 H   -4.625175   -5.277046   -1.218937
 H   -2.854779   -3.763908   -2.003701
