36 
5ut6_ligand_aiqm1.xyz
 C  -28.938569   16.748958   75.891670
 C  -29.259786   14.575287   76.727718
 C  -29.593533   12.238990   77.452486
 C  -27.457404   11.693365   77.373142
 C  -34.648719   16.035342   76.927169
 C  -36.772702   13.667435   78.863353
 C  -35.619096   14.334479   78.328313
 C  -34.335967   13.926061   78.698898
 C  -33.210486   14.562731   78.192932
 C  -33.358334   15.624493   77.289246
 C  -30.969833   16.017910   76.589989
 C  -28.379706   15.504569   76.214097
 C  -28.747597   11.183547   77.667988
 C  -26.146236   10.982397   77.456873
 C  -35.770169   15.399794   77.436698
 N  -37.704246   13.128058   79.295758
 N  -32.289959   16.348497   76.753439
 N  -30.237939   17.006564   76.058717
 N  -28.177067   17.776169   75.418687
 N  -28.816768   13.290955   77.060233
 N  -27.501189   12.963874   76.998506
 N  -30.562453   14.795569   76.937736
 O  -26.393040    9.593837   77.275607
 H  -30.661266   12.352766   77.524126
 H  -34.769084   16.862275   76.238057
 H  -34.228826   13.107724   79.397759
 H  -32.226404   14.241863   78.492030
 H  -27.335048   15.272769   76.084310
 H  -28.998118   10.181869   77.965456
 H  -25.680590   11.169828   78.431730
 H  -25.477262   11.378623   76.687177
 H  -36.760572   15.721895   77.147600
 H  -32.514671   17.243531   76.352997
 H  -27.274002   17.564039   75.033355
 H  -28.683260   18.544289   75.012260
 H  -25.573999    9.118549   77.423687
