36 
5ut6_ligand_ani-2x.xyz
 C  -28.917316   16.787953   75.823597
 C  -29.258133   14.639642   76.699895
 C  -29.676424   12.379325   77.561014
 C  -27.599206   11.679489   77.345915
 C  -34.596037   15.929315   76.860263
 C  -36.601700   13.433627   78.766141
 C  -35.482479   14.193570   78.275327
 C  -34.192306   13.936412   78.746911
 C  -33.104816   14.656324   78.276351
 C  -33.298911   15.652923   77.312426
 C  -30.943429   16.113492   76.592711
 C  -28.370288   15.539307   76.147800
 C  -28.888310   11.278559   77.760735
 C  -26.325725   10.886751   77.363416
 C  -35.677188   15.202862   77.325687
 N  -37.503267   12.822206   79.161036
 N  -32.257706   16.442619   76.801995
 N  -30.205587   17.080176   76.036107
 N  -28.171064   17.770408   75.229638
 N  -28.862132   13.346997   77.057759
 N  -27.586252   12.933717   76.917698
 N  -30.539271   14.898138   76.939421
 O  -26.643508    9.513477   77.474825
 H  -30.728852   12.597151   77.710748
 H  -34.747462   16.715378   76.124625
 H  -34.038081   13.157949   79.488661
 H  -32.114937   14.456522   78.668640
 H  -27.334749   15.274044   75.972572
 H  -29.165579   10.305848   78.142174
 H  -25.705570   11.219640   78.212287
 H  -25.763877   11.108179   76.444162
 H  -36.677035   15.416500   76.959823
 H  -32.509083   17.336627   76.406134
 H  -27.170869   17.749654   75.352599
 H  -28.601467   18.682225   75.238996
 H  -25.815283    9.021896   77.501716
