27 
5uv5_ligand_xtb.xyz
 N  -30.009896   77.494836   -2.878643
 C  -29.486409   76.373994   -3.496535
 C  -30.136928   72.785522   -6.790994
 C  -30.701523   71.963421   -7.737427
 C  -29.711931   71.021104   -8.087707
 C  -28.619186   71.331594   -7.335476
 C  -30.368172   75.690154   -4.443429
 C  -31.673430   76.135071   -4.651698
 C  -32.223344   77.293708   -3.887908
 C  -31.250098   78.082151   -3.040250
 C  -29.868693   74.595889   -5.142881
 C  -30.662679   73.924077   -6.066615
 C  -31.970663   74.376398   -6.275053
 C  -32.461904   75.460276   -5.577844
 O  -28.343079   76.048035   -3.230611
 O  -31.534061   79.124895   -2.515761
 O  -29.117921   78.145249   -2.031617
 O  -28.864580   72.389092   -6.554093
 H  -31.693534   72.019281   -8.135551
 H  -29.801478   70.225716   -8.798493
 H  -27.644906   70.888790   -7.271458
 H  -33.005959   76.941640   -3.204521
 H  -32.714863   78.001946   -4.561748
 H  -28.854230   74.279122   -4.956793
 H  -32.601637   73.871777   -6.989038
 H  -33.474448   75.794157   -5.750977
 H  -28.306648   77.591208   -2.097876
