27 
5uv5_ligand_dft.xyz
 N    3.045151   -0.738305    0.012406
 C    1.722019   -1.146686    0.014126
 C   -3.054686    0.127175   -0.003383
 C   -4.218483    0.840143   -0.011313
 C   -5.279299   -0.115599   -0.014574
 C   -4.681803   -1.333955   -0.008337
 C    0.699011   -0.081969    0.014395
 C    1.074345    1.261111    0.014363
 C    2.523614    1.661506    0.028091
 C    3.558089    0.553642   -0.016020
 C   -0.642409   -0.461681    0.008282
 C   -1.644775    0.505721    0.002899
 C   -1.268314    1.857524    0.002749
 C    0.066914    2.226279    0.008411
 O    1.486843   -2.346739    0.013995
 O    4.743993    0.769257   -0.056811
 O    3.975719   -1.752464   -0.005996
 O   -3.336092   -1.202836   -0.001556
 H   -4.317090    1.916025   -0.014488
 H   -6.340944    0.082583   -0.020793
 H   -5.054276   -2.346169   -0.007746
 H    2.747882    2.246060    0.928605
 H    2.749828    2.322355   -0.816217
 H   -0.887185   -1.517677    0.007263
 H   -2.031172    2.630030   -0.002171
 H    0.333780    3.279692    0.008055
 H    3.394079   -2.541775   -0.004556
