56 
5uyu_ligand_dft.xyz
 C    5.390024    1.900290   -0.134801
 C    6.667177    2.594483   -0.600947
 O    7.812026    1.958247   -0.078596
 C    7.962284    0.656066   -0.592693
 C    6.690965   -0.140481   -0.595073
 C    5.494791    0.409647   -0.362545
 C    4.267816   -0.421295   -0.312453
 C    3.044718    0.111279    0.092164
 N    4.383482   -1.719479   -0.655351
 C    3.309623   -2.486763   -0.621950
 C    2.051160   -2.020671   -0.232200
 O    1.022187   -2.914440   -0.253696
 C    1.909350   -0.695555    0.148517
 C    0.581386   -0.176536    0.653748
 C    0.602379    0.011082    2.198673
 O   -0.217562    1.149263    2.441200
 C   -0.333208    1.871364    1.292422
 N    0.357810    1.212337    0.288734
 N   -0.973872    2.951169    1.141888
 C   -0.534953   -1.112563    0.209494
 C   -1.871629   -0.710572    0.236580
 C   -0.251710   -2.422215   -0.178512
 C   -1.270750   -3.307555   -0.520133
 C   -2.588249   -2.885745   -0.480644
 C   -2.910922   -1.575498   -0.102159
 C   -4.319103   -1.115929   -0.056195
 C   -4.683678    0.172234   -0.445677
 C   -5.340172   -1.959444    0.395486
 N   -6.625068   -1.613090    0.459706
 C   -6.953579   -0.381809    0.079687
 C   -6.023217    0.562376   -0.377519
 C   -6.439934    1.874567   -0.765789
 C   -6.790700    2.984015   -1.089105
 C   -7.211784    4.327611   -1.474037
 H    5.215009    2.113719    0.928054
 H    4.539161    2.317626   -0.688182
 H    6.704768    2.601248   -1.703053
 H    6.702840    3.629540   -0.252486
 H    8.712020    0.163632    0.036129
 H    8.375857    0.692244   -1.617531
 H    6.766733   -1.206167   -0.790787
 H    2.948955    1.154924    0.370687
 H    3.421348   -3.528420   -0.914752
 H    1.620175    0.213292    2.548772
 H    0.185077   -0.844243    2.731175
 H    0.074322    1.433035   -0.655833
 H   -1.367109    3.254730    2.029891
 H   -2.112553    0.301741    0.547942
 H   -1.007268   -4.312324   -0.832178
 H   -3.374400   -3.573317   -0.776991
 H   -3.941071    0.873893   -0.814121
 H   -5.102764   -2.963527    0.742334
 H   -8.006522   -0.117042    0.137961
 H   -8.161243    4.589280   -0.996045
 H   -7.346930    4.401078   -2.558239
 H   -6.464598    5.069631   -1.174879
