56 
5uyu_ligand_xtb.xyz
 C   -5.036091    2.167559   -0.838021
 C   -6.192569    3.170834   -0.855596
 O   -7.439990    2.519519   -0.881099
 C   -7.672276    1.785033    0.298224
 C   -6.487536    1.010046    0.774363
 C   -5.263367    1.165985    0.263190
 C   -4.140139    0.365555    0.752404
 C   -2.920618    0.305151    0.078053
 N   -4.339906   -0.329972    1.877194
 C   -3.369279   -1.057009    2.369850
 C   -2.109112   -1.164539    1.772630
 O   -1.169998   -1.927561    2.389542
 C   -1.891319   -0.475559    0.582448
 C   -0.579505   -0.597959   -0.151888
 C   -0.744495   -1.390769   -1.482444
 O   -0.075025   -0.645823   -2.474919
 C    0.290003    0.571106   -1.972224
 N   -0.157466    0.682178   -0.685848
 N    0.919464    1.477020   -2.571227
 C    0.468320   -1.234486    0.736724
 C    1.803175   -1.216484    0.358505
 C    0.110600   -1.873292    1.922066
 C    1.086858   -2.492056    2.699999
 C    2.405654   -2.474128    2.304256
 C    2.785903   -1.829299    1.126427
 C    4.187986   -1.802868    0.695811
 C    4.741434   -0.678891    0.090703
 C    5.019968   -2.912556    0.867902
 N    6.287938   -2.940479    0.503781
 C    6.808961   -1.870140   -0.061689
 C    6.077965   -0.702164   -0.304182
 C    6.677371    0.417088   -0.923818
 C    7.185149    1.368724   -1.456636
 C    7.795447    2.510300   -2.094367
 H   -4.990566    1.651743   -1.801228
 H   -4.097554    2.703390   -0.687172
 H   -6.125838    3.821568    0.029765
 H   -6.159635    3.789998   -1.754358
 H   -8.504933    1.111609    0.073268
 H   -7.997461    2.463376    1.109182
 H   -6.656161    0.308146    1.575222
 H   -2.759500    0.847305   -0.839899
 H   -3.575081   -1.590512    3.287355
 H   -1.802805   -1.484958   -1.753435
 H   -0.297260   -2.387043   -1.424292
 H    0.240687    1.388574   -0.092012
 H    1.138233    1.259475   -3.535110
 H    2.077839   -0.732304   -0.567746
 H    0.782177   -2.975713    3.614358
 H    3.154335   -2.943084    2.923849
 H    4.154380    0.216166   -0.060014
 H    4.640275   -3.827654    1.302945
 H    7.852821   -1.935587   -0.338452
 H    8.494460    2.179570   -2.862377
 H    8.337540    3.101103   -1.355777
 H    7.030041    3.135168   -2.554086
