25 
5v1b_ligand_xtb.xyz
 N   15.938680   26.257051   -7.794514
 C   13.854326   26.475283   -5.024768
 C   13.314886   26.188864   -3.789165
 C   13.846931   25.168102   -2.997316
 C   14.939042   24.440103   -3.471962
 C   15.480814   24.717087   -4.709739
 C   11.893018   24.962049   -1.453855
 C   13.528215   24.182680    0.603929
 C   15.607401   23.950581    0.598705
 C   15.494427   26.024279   -6.763733
 C   14.941286   25.736435   -5.494888
 C   13.244560   24.869159   -1.695273
 C   11.348299   24.665098   -0.195107
 C   12.154359   24.277907    0.840818
 N   14.542599   23.851308    1.393062
 N   15.351345   24.319503   -0.643848
 N   14.028450   24.471036   -0.661217
 H   13.445717   27.269999   -5.631202
 H   12.487937   26.777305   -3.421514
 H   15.363248   23.656251   -2.866025
 H   16.322928   24.149627   -5.076703
 H   11.237069   25.247984   -2.259735
 H   16.604590   23.745796    0.932012
 H   10.281904   24.745788   -0.053908
 H   11.778270   24.045025    1.822247
