25 
5v1b_ligand_aiqm1.xyz
 N   15.874268   26.268596   -7.883989
 C   13.907524   26.532138   -4.989897
 C   13.393270   26.238778   -3.733475
 C   13.888914   25.155702   -2.995484
 C   14.907674   24.366267   -3.541041
 C   15.421016   24.649953   -4.797956
 C   11.917084   24.910161   -1.484609
 C   13.519732   24.199193    0.642640
 C   15.604490   24.040276    0.694857
 C   15.449037   26.029895   -6.831929
 C   14.919701   25.732992   -5.527909
 C   13.268961   24.850805   -1.687454
 C   11.338988   24.607736   -0.219242
 C   12.120174   24.254356    0.842933
 N   14.515632   23.909509    1.481519
 N   15.391701   24.386444   -0.572464
 N   14.038202   24.486001   -0.601383
 H   13.535168   27.374555   -5.555620
 H   12.617701   26.867400   -3.315371
 H   15.312436   23.548985   -2.963263
 H   16.210155   24.044776   -5.222192
 H   11.279682   25.177737   -2.313881
 H   16.606194   23.878968    1.056066
 H   10.265896   24.662252   -0.112062
 H   11.726700   24.020824    1.817507
