24 
5v4q_ligand_xtb.xyz
 O   -2.070831    2.018912    0.855058
 C   -1.357110    1.109970    1.525786
 O   -0.731637    1.325988    2.513878
 C   -1.482751   -0.279917    0.877880
 N   -1.972278   -0.146728   -0.518682
 C   -0.162627   -1.052043    0.955831
 C    1.056227   -0.351974    0.341988
 C    1.215822   -0.479312   -1.175123
 O    0.228318    0.361665   -1.801278
 C    2.609311   -0.058439   -1.617707
 H   -2.026850    2.889661    1.284280
 H   -2.235163   -0.814450    1.470955
 H   -2.644074    0.628365   -0.570603
 H   -2.404351   -1.011385   -0.851335
 H   -1.122854    0.094854   -1.147237
 H   -0.293086   -2.038158    0.506712
 H    0.041547   -1.197980    2.016916
 H    1.943733   -0.794461    0.791750
 H    1.054906    0.705473    0.606888
 H    1.030080   -1.519215   -1.484487
 H    0.452482    0.476985   -2.732314
 H    2.809797    0.964281   -1.308037
 H    2.704063   -0.122410   -2.700126
 H    3.357125   -0.709383   -1.176394
