59 
5v5d_ligand_dft.xyz
 O    1.227417    3.739628    0.804672
 C    0.569316    2.873648    0.252418
 C   -0.914131    3.025367    0.011763
 N   -1.527681    1.994428   -0.574026
 C   -2.846988    2.042694   -0.766335
 C   -3.486424    0.809728   -1.344128
 C   -4.030769   -0.146723   -0.265290
 C   -2.952093   -0.648259    0.699157
 C   -3.576336   -1.440731    1.862793
 C   -4.842180   -2.211317    1.435868
 C   -4.758885   -2.601502   -0.039987
 C   -4.732199   -1.349437   -0.937222
 C   -3.591110    3.164399   -0.384095
 C   -2.945056    4.241488    0.208465
 C   -1.571150    4.177319    0.421243
 N    1.036579    1.673377   -0.200218
 C    2.310232    1.134563   -0.111901
 C    3.400655    1.785040    0.480799
 C    4.632715    1.153156    0.526754
 C    4.808943   -0.135256    0.016618
 C    6.167594   -0.752457    0.106165
 O    6.222353   -2.104226    0.056562
 O    7.180774   -0.112353    0.217755
 C    3.722540   -0.774583   -0.583174
 C    2.485231   -0.151280   -0.661924
 N    1.372463   -0.772101   -1.303681
 C    0.629137   -1.778065   -0.667761
 C    0.648725   -1.933517    0.722522
 C   -0.126093   -2.920629    1.322189
 C   -0.929602   -3.763526    0.559845
 C   -0.955070   -3.601523   -0.823541
 C   -0.187082   -2.618730   -1.435275
 H   -2.730996    0.281494   -1.936602
 H   -4.306061    1.090088   -2.017883
 H   -4.775636    0.410115    0.323806
 H   -2.356346    0.180182    1.093436
 H   -2.253794   -1.282755    0.139601
 H   -3.824266   -0.759952    2.685990
 H   -2.827568   -2.140428    2.250286
 H   -5.733233   -1.587431    1.587742
 H   -4.977663   -3.098059    2.064748
 H   -5.596401   -3.248636   -0.322943
 H   -3.843068   -3.185682   -0.195815
 H   -4.214155   -1.589718   -1.874994
 H   -5.754352   -1.060529   -1.212843
 H   -4.663737    3.181628   -0.551806
 H   -3.506666    5.121260    0.507638
 H   -1.011391    4.978017    0.890014
 H    0.336339    1.085046   -0.648852
 H    3.263841    2.777159    0.888984
 H    5.486376    1.655303    0.969640
 H    5.336779   -2.477090    0.155827
 H    3.818538   -1.758644   -1.037265
 H    1.494135   -0.916509   -2.296970
 H    1.270221   -1.283500    1.330095
 H   -0.098864   -3.027742    2.402729
 H   -1.531366   -4.531075    1.035602
 H   -1.577852   -4.246841   -1.436479
 H   -0.216230   -2.499226   -2.515908
