59 
5v5d_ligand_aiqm1.xyz
 O   -1.798875  -30.152203  -42.184803
 C   -2.974482  -30.111331  -41.861835
 C   -3.900825  -31.276796  -42.071266
 N   -5.183040  -31.101417  -41.726040
 C   -6.043189  -32.103386  -41.920827
 C   -7.492138  -31.835784  -41.613227
 C   -8.332661  -31.647418  -42.884378
 C   -7.802711  -30.516327  -43.762455
 C   -8.539969  -30.482123  -45.115291
 C   -9.980946  -31.004231  -44.996143
 C  -10.558629  -30.636451  -43.633512
 C   -9.799619  -31.368505  -42.511932
 C   -5.622350  -33.329560  -42.457373
 C   -4.288843  -33.504381  -42.803343
 C   -3.400476  -32.450767  -42.614446
 N   -3.604175  -29.045975  -41.293602
 C   -3.067397  -27.811581  -40.931431
 C   -1.742269  -27.434632  -41.187387
 C   -1.305170  -26.176842  -40.802535
 C   -2.165207  -25.268407  -40.185559
 C   -1.616674  -23.932062  -39.810809
 O   -2.517024  -22.936760  -39.608973
 O   -0.443487  -23.706438  -39.693796
 C   -3.484134  -25.648081  -39.926406
 C   -3.941842  -26.913409  -40.284086
 N   -5.275350  -27.331202  -40.025464
 C   -6.297462  -27.142330  -40.971250
 C   -6.024729  -26.686231  -42.267389
 C   -7.062035  -26.562397  -43.190653
 C   -8.372148  -26.881328  -42.840094
 C   -8.637801  -27.339028  -41.549865
 C   -7.611814  -27.470416  -40.621427
 H   -7.559633  -30.922186  -41.017373
 H   -7.908047  -32.658638  -41.023138
 H   -8.283663  -32.579217  -43.467006
 H   -6.725446  -30.625907  -43.923636
 H   -7.941123  -29.578422  -43.217947
 H   -7.999847  -31.085355  -45.848303
 H   -8.551011  -29.457339  -45.492921
 H   -9.997692  -32.093057  -45.110681
 H  -10.596336  -30.597966  -45.802404
 H  -11.623356  -30.873853  -43.579739
 H  -10.468067  -29.553933  -43.501580
 H   -9.825100  -30.761085  -41.602547
 H  -10.294613  -32.315568  -42.273408
 H   -6.340208  -34.126287  -42.609119
 H   -3.950655  -34.443185  -43.222297
 H   -2.354003  -32.507096  -42.871719
 H   -4.580282  -29.201879  -41.072901
 H   -1.071128  -28.130948  -41.667831
 H   -0.282009  -25.869505  -40.972442
 H   -3.395327  -23.235047  -39.859933
 H   -4.168098  -24.981369  -39.405624
 H   -5.579253  -27.258604  -39.070027
 H   -5.008814  -26.442604  -42.549531
 H   -6.838490  -26.217120  -44.191228
 H   -9.165280  -26.799266  -43.570828
 H   -9.644582  -27.615568  -41.260904
 H   -7.817870  -27.836592  -39.622437
