23 
5v8o_ligand_xtb.xyz
 C   44.355886    5.267182  -20.365208
 C   44.263982    3.821452  -20.140247
 C   44.417248    7.182435  -21.822697
 C   43.550436    1.552449  -20.835600
 C   43.653554    2.970609  -21.025004
 C   44.523869    8.023004  -20.726470
 C   44.557619    7.487433  -19.449218
 C   44.479791    6.120190  -19.268780
 C   44.332720    5.814184  -21.647349
 N   44.169586    1.181890  -19.603184
 C   44.742154    2.118451  -18.773243
 N   44.818486    3.386994  -18.967465
 N   45.196010    1.372413  -17.726362
 N   44.895800    0.080744  -17.954225
 N   44.303033   -0.032247  -19.035933
 O   43.039158    0.729211  -21.551466
 H   44.402971    7.595862  -22.820322
 H   43.193392    3.346162  -21.923590
 H   44.586274    9.091683  -20.868536
 H   44.646134    8.138685  -18.592210
 H   44.507099    5.691139  -18.279566
 H   44.273087    5.169405  -22.510683
 H   45.682510    1.683470  -16.903342
