51 
5vad_ligand_dft.xyz
 N    2.141558    0.495211    0.473355
 C    1.300659    1.521522    0.105546
 C    0.890559    3.718588   -0.303777
 C   -0.436536    3.443988   -0.618447
 C   -0.622362   -0.165551   -0.178235
 N   -1.901370   -0.254258   -0.578198
 C   -2.643942   -1.502634   -0.534055
 C   -4.933939   -0.830240   -0.649546
 C   -6.985451    0.255378   -0.049492
 C   -4.626481   -0.999904    0.703365
 C   -3.302958   -1.712991    0.850964
 C    4.064522   -0.888852    0.990355
 C    6.446291   -0.603418    0.097985
 C    4.655865   -1.593540   -1.383178
 O    4.208496    1.502844    0.595774
 C    3.522152    0.508731    0.665687
 N    1.752457    2.776199    0.057421
 N   -0.894347    2.196861   -0.569663
 C   -0.053189    1.229180   -0.216672
 O    0.038437   -1.145945    0.184135
 C   -3.837000   -1.418874   -1.508225
 C   -6.112148   -0.204646   -1.034987
 C   -6.679658    0.086719    1.300042
 C   -5.496608   -0.544089    1.684806
 C    5.561551   -0.842718    1.327359
 C    6.144553   -1.599321   -1.025071
 C    3.798480   -1.894712   -0.151696
 H    1.657513   -0.401280    0.529887
 H    1.273242    4.735868   -0.339633
 H   -1.132419    4.224932   -0.908594
 H   -2.376053    0.618856   -0.774028
 H   -1.943334   -2.302279   -0.778661
 H   -7.907009    0.753715   -0.335464
 H   -2.673567   -1.333132    1.660370
 H   -3.460524   -2.784685    1.031649
 H    3.512280   -1.230475    1.877599
 H    7.500572   -0.673548    0.390328
 H    6.279217    0.416845   -0.261798
 H    4.447101   -2.330785   -2.166937
 H    4.381605   -0.610848   -1.791828
 H   -4.111958   -2.426534   -1.845060
 H   -3.601524   -0.831124   -2.401314
 H   -6.350043   -0.068512   -2.086758
 H   -7.365135    0.454832    2.057745
 H   -5.258433   -0.669294    2.737717
 H    5.827981   -1.806188    1.783120
 H    5.747189   -0.066745    2.076101
 H    6.429311   -2.612552   -0.705346
 H    6.748862   -1.365680   -1.909234
 H    2.736208   -1.924179   -0.418435
 H    4.049200   -2.896199    0.222527
