73 
5vb6_ligand_ani-2x.xyz
 C   -2.644980   24.304348   15.435064
 C   -1.132479   24.513748   15.513483
 C   -0.451608   24.160486   14.181418
 C   -1.074815   24.976110   13.036646
 C   -2.588280   24.776540   12.953197
 C    1.626088   25.585411   14.497043
 N    3.851528   24.674697   14.370890
 C    3.294572   23.486147   14.133019
 C   -5.444993   25.969943   13.734963
 C   -8.843080   28.761269   14.219258
 C  -10.175647   28.060284   14.094959
 C   -8.850737   30.119958   14.867071
 C   -7.028271   25.401142   16.241222
 C   -8.904638   24.094976   17.027425
 O  -10.825701   23.383757   13.236931
 C  -11.253426   23.058472   14.333248
 C  -12.523596   22.261990   14.454567
 C  -12.905579   21.508582   13.344962
 C  -14.061214   20.737549   13.382264
 C  -14.856136   20.732274   14.525651
 C  -14.495021   21.505184   15.626814
 C  -13.332581   22.267894   15.593296
 N  -10.629964   23.342132   15.522817
 C   -9.416419   24.029166   15.725977
 C   -7.724976   24.782803   17.273029
 C   -8.733696   24.656546   14.687139
 C   -7.527101   25.308533   14.938268
 N   -6.835871   25.891182   13.827920
 C   -7.570820   26.897022   13.058470
 C   -7.705812   28.215173   13.780622
 O   -4.910838   26.936682   13.202233
 N   -4.719172   24.915016   14.239731
 C   -5.246982   23.557693   14.270456
 C   -3.266503   25.103261   14.289549
 C    1.050704   24.340417   14.248177
 C    1.922327   23.268447   14.062600
 C    3.011296   25.696794   14.547557
 H   -3.126125   24.591018   16.377674
 H   -2.845748   23.235212   15.282047
 H   -0.704295   23.907970   16.320326
 H   -0.912674   25.561831   15.762421
 H   -0.651830   23.098146   13.978910
 H   -0.603339   24.702203   12.086216
 H   -0.853630   26.041553   13.196330
 H   -2.807648   23.732940   12.683490
 H   -3.017683   25.413510   12.173467
 H    1.016203   26.472819   14.652801
 H    3.982644   22.654063   13.989269
 H  -10.486159   27.963092   13.046930
 H  -10.127748   27.048407   14.517897
 H  -10.961181   28.613070   14.620990
 H   -7.844866   30.547047   14.934358
 H   -9.481119   30.816090   14.300647
 H   -9.267818   30.064066   15.879799
 H   -6.111281   25.946950   16.446010
 H   -9.436637   23.616774   17.846410
 H  -12.277868   21.544290   12.458442
 H  -14.345319   20.143762   12.517209
 H  -15.761364   20.131646   14.556391
 H  -15.115054   21.508988   16.520151
 H  -13.086451   22.892759   16.450187
 H  -11.003569   22.891773   16.343531
 H   -7.340995   24.837468   18.288343
 H   -9.136795   24.605082   13.683476
 H   -8.552974   26.483002   12.807017
 H   -7.014069   27.042461   12.129456
 H   -6.768808   28.745008   13.952531
 H   -5.523232   23.263274   15.292130
 H   -6.131711   23.480791   13.635318
 H   -4.499906   22.851599   13.894403
 H   -3.113381   26.170588   14.487354
 H    1.539747   22.270153   13.864518
 H    3.470703   26.664970   14.741415
