70 
5vb7_ligand_ani-2x.xyz
 C   -2.806370   24.287663   15.487338
 C   -1.314398   24.589510   15.630193
 C   -0.582795   24.430310   14.287754
 C   -2.731647   25.029021   13.072478
 C    2.754447   26.149788   14.914021
 C    3.201895   24.021802   14.273310
 C   -5.680989   25.929805   13.889757
 C   -7.847342   26.772974   13.235449
 C   -8.055873   28.029548   14.044306
 C   -9.226946   28.496539   14.484136
 C   -9.317531   29.825467   15.185604
 C   -7.276771   24.975981   16.275642
 C   -9.039971   23.424037   16.862624
 C   -5.320752   23.493581   14.180395
 N   -4.893410   24.880520   14.306496
 C   -3.459138   25.161676   14.416434
 C   -1.238278   25.321292   13.219782
 C    0.901323   24.703736   14.415841
 C    1.381930   25.950526   14.812755
 N    3.668346   25.212558   14.652728
 C    1.850238   23.720153   14.141244
 O   -5.203851   26.977555   13.467672
 N   -7.065714   25.752726   13.939037
 C  -10.517009   27.732550   14.303229
 C   -7.738670   25.005066   14.955536
 C   -7.930429   24.181819   17.212034
 C   -9.517172   23.491862   15.556130
 O  -10.595422   22.696232   15.236394
 C  -11.500135   23.223806   14.334910
 C  -12.239327   24.358771   14.657026
 C  -13.155373   24.857932   13.735236
 C  -13.329223   24.226538   12.506907
 C  -12.595293   23.082131   12.204793
 C  -11.682103   22.572175   13.122360
 C   -8.889468   24.294310   14.608906
 H   -3.325736   24.437564   16.441347
 H   -2.928350   23.230180   15.215734
 H   -0.861192   23.930236   16.379376
 H   -1.174398   25.616839   15.995911
 H   -0.703145   23.385162   13.967072
 H   -3.189134   25.716144   12.353761
 H   -2.870588   24.008347   12.686626
 H    3.140112   27.120136   15.223344
 H    3.949924   23.259073   14.060788
 H   -7.290365   27.014140   12.326366
 H   -8.803971   26.330214   12.940677
 H   -7.147342   28.586233   14.272179
 H   -8.336796   30.300760   15.290162
 H   -9.973147   30.510319   14.634404
 H   -9.749279   29.706936   16.186672
 H   -6.411630   25.564272   16.570191
 H   -9.551716   22.785988   17.576678
 H   -5.570746   23.067696   15.161577
 H   -6.201415   23.425041   13.538751
 H   -4.526318   22.889406   13.730459
 H   -3.386062   26.209305   14.731023
 H   -0.728849   25.185345   12.259245
 H   -1.096664   26.375620   13.498925
 H    0.707718   26.772139   15.045360
 H    1.543406   22.725616   13.826681
 H  -10.843120   27.731293   13.255302
 H  -10.405543   26.684608   14.611694
 H  -11.318526   28.183429   14.897513
 H   -7.561907   24.147979   18.233983
 H  -12.104405   24.829977   15.627829
 H  -13.735706   25.746093   13.976777
 H  -14.042534   24.622116   11.789105
 H  -12.732645   22.581294   11.249557
 H  -11.095188   21.682563   12.911000
 H   -9.282022   24.341778   13.597776
