70 
5vb7_ligand_xtb.xyz
 C   -3.024137   24.454737   15.383748
 C   -1.544245   24.774952   15.571795
 C   -0.744433   24.368055   14.328354
 C   -2.775840   24.780090   12.905164
 C    2.566997   26.124672   14.884738
 C    2.998533   23.917349   14.657019
 C   -5.724615   26.130953   13.695988
 C   -7.865329   27.110149   13.161951
 C   -7.917192   28.246388   14.141174
 C   -8.895595   28.528698   14.992827
 C   -8.766075   29.655379   15.975039
 C   -7.279158   25.314509   16.047876
 C   -9.033299   23.830343   16.747586
 C   -5.523429   23.674778   13.973543
 N   -4.995794   25.017073   14.006242
 C   -3.558901   25.191780   14.155850
 C   -1.295443   25.093359   13.094828
 C    0.722414   24.646928   14.512791
 C    1.205232   25.935470   14.721246
 N    3.451873   25.142490   14.855080
 C    1.657112   23.617988   14.482016
 O   -5.192889   27.177395   13.370435
 N   -7.105315   25.980476   13.710672
 C  -10.195890   27.784153   15.080794
 C   -7.749150   25.262801   14.739239
 C   -7.920660   24.594840   17.039746
 C   -9.512625   23.781392   15.440432
 O  -10.556493   22.931092   15.200769
 C  -11.417830   23.157067   14.156020
 C  -11.892355   24.425091   13.840129
 C  -12.809423   24.578785   12.816837
 C  -13.265186   23.477600   12.112027
 C  -12.805868   22.213248   12.441525
 C  -11.883893   22.048219   13.458100
 C   -8.871318   24.497563   14.438637
 H   -3.586950   24.758016   16.268830
 H   -3.147284   23.377174   15.259242
 H   -1.156742   24.244454   16.444843
 H   -1.424842   25.844789   15.750393
 H   -0.873019   23.289632   14.177627
 H   -3.166455   25.327932   12.046360
 H   -2.898673   23.711388   12.713943
 H    2.974988   27.113848   15.048441
 H    3.750049   23.138428   14.638216
 H   -7.342342   27.432175   12.259011
 H   -8.857750   26.744356   12.896229
 H   -7.005365   28.825699   14.173038
 H   -7.780363   30.109384   15.926109
 H   -9.513477   30.422370   15.771780
 H   -8.935311   29.287976   16.986896
 H   -6.416267   25.921113   16.276191
 H   -9.539886   23.260183   17.509675
 H   -5.798999   23.316427   14.970350
 H   -6.402937   23.634058   13.333992
 H   -4.771757   23.004910   13.556983
 H   -3.414832   26.268635   14.296979
 H   -0.733275   24.786768   12.209706
 H   -1.169491   26.170418   13.213983
 H    0.536604   26.781451   14.755753
 H    1.343972   22.596420   14.323555
 H  -10.451664   27.310253   14.137191
 H  -10.128248   27.012214   15.849127
 H  -11.000359   28.463425   15.356909
 H   -7.555002   24.637593   18.054809
 H  -11.551768   25.278431   14.406867
 H  -13.174629   25.566124   12.575345
 H  -13.980796   23.603995   11.313981
 H  -13.164013   21.349548   11.901526
 H  -11.517411   21.070110   13.728332
 H   -9.225986   24.438239   13.419873
