19 
5vdu_ligand_dft.xyz
 N   -1.387246   -1.203395   -0.000248
 C    0.730808   -0.013921    0.000047
 N   -1.366084    1.176994    0.000240
 C   -2.696816    1.181382    0.000218
 C   -0.766150   -0.020848    0.000020
 C   -2.717464   -1.173645   -0.000266
 C   -3.444043    0.011213   -0.000002
 C    2.809778    1.176569   -0.000239
 C    3.458285   -0.052453   -0.000032
 C    2.677346   -1.205908    0.000228
 N    1.346831   -1.200031    0.000252
 C    1.421395    1.200918   -0.000193
 H   -3.176298    2.158166    0.000438
 H   -3.218762   -2.139673   -0.000449
 H   -4.527759    0.021588    0.000020
 H    3.375072    2.103776   -0.000446
 H    4.541166   -0.121943   -0.000067
 H    3.147007   -2.187541    0.000427
 H    0.866222    2.130803   -0.000318
