19 
5vdu_ligand_aiqm1.xyz
 N  -30.701595   18.888848  -24.344088
 C  -30.277618   16.547007  -23.870241
 N  -31.217552   17.231693  -25.978555
 C  -31.651040   18.188894  -26.800334
 C  -30.759771   17.626755  -24.780736
 C  -31.141039   19.827008  -25.184712
 C  -31.636016   19.531826  -26.448853
 C  -29.867568   14.229088  -23.424727
 C  -29.386983   14.604593  -22.176260
 C  -29.384056   15.958364  -21.851275
 N  -29.816465   16.917622  -22.669880
 C  -30.321928   15.214670  -24.290192
 H  -32.018704   17.859929  -27.765056
 H  -31.092182   20.848239  -24.827060
 H  -31.988853   20.302814  -27.119633
 H  -29.888584   13.188218  -23.719931
 H  -29.022140   13.873464  -21.467100
 H  -29.016950   16.289268  -20.887226
 H  -30.705357   14.978303  -25.271441
