19 
5vdv_ligand_ani-2x.xyz
 C  -30.110294   18.684515  -24.067871
 C  -29.060821   16.745307  -23.071637
 C  -29.875097   16.592326  -25.386472
 C  -29.363916   18.843906  -21.928299
 C  -30.489205   17.205340  -26.454751
 C  -30.919358   18.547164  -26.354215
 C  -30.737980   19.269126  -25.198704
 C  -29.674925   17.312547  -24.182388
 N  -28.923681   17.532332  -21.973722
 N  -29.951012   19.427705  -22.951418
 N  -29.060372   19.290111  -20.700848
 N  -28.466899   18.269204  -20.066698
 N  -28.364503   17.209717  -20.783921
 O  -28.608639   15.507808  -23.016745
 H  -29.537935   15.561357  -25.445942
 H  -30.646717   16.661030  -27.381346
 H  -31.402847   19.015866  -27.208213
 H  -31.064908   20.301310  -25.110776
 H  -28.218393   15.333828  -22.137435
