85 
5vfc_ligand_aiqm1.xyz
 C    5.922035   -2.714579    2.235569
 N    4.999000   -2.717463    1.116662
 C    5.400915   -2.112274   -0.049883
 N    6.604551   -1.673023   -0.172405
 N    4.410319   -2.105992   -1.024670
 C    4.433100   -1.142687   -2.103716
 C    4.370291    0.332147   -1.651925
 C    3.466776    0.534436   -0.438510
 C    2.035761    0.037695   -0.645972
 C    1.474779   -0.509100    0.675544
 O    1.921975   -1.568580    1.099582
 N    1.204956    1.053344   -1.277693
 N    0.494919    0.200317    1.262338
 C   -0.119744   -0.216186    2.515004
 C   -1.594495   -0.634603    2.368469
 O   -2.270952   -0.819536    3.364655
 C    0.031540    0.849874    3.594503
 C    1.484934    1.060141    3.999744
 O   -0.030193    3.044804    0.431264
 C   -0.444163    5.836116    0.751615
 C    1.644223    5.464956   -0.610671
 C   -0.051064    0.736991   -1.642100
 C   -1.317835    1.790637   -3.506522
 N   -0.420511    3.209872   -1.789812
 C    0.131193    5.238864   -0.529228
 C   -0.141733    3.746740   -0.569779
 C   -1.019282    1.879037   -2.012536
 C   -2.306254    1.777722   -1.161807
 C   -3.231465    0.592487   -1.470210
 O   -0.435121   -0.428087   -1.667786
 N   -4.323280    0.509592   -0.520487
 N   -2.080827   -0.792889    1.101640
 C   -3.409493   -1.354073    0.911147
 C   -3.498968   -2.511673   -0.059959
 C   -4.692248   -3.241086   -0.070969
 C   -4.854604   -4.323927   -0.927656
 C   -3.823553   -4.697077   -1.787764
 C   -2.635282   -3.977063   -1.782649
 C   -2.467416   -2.889112   -0.923490
 C   -4.476893   -0.288961    0.574286
 O   -5.478386   -0.198948    1.262419
 H    6.197318   -1.701936    2.550382
 H    5.459999   -3.244920    3.067181
 H    6.833527   -3.232032    1.944778
 H    4.017855   -2.610463    1.335931
 H    6.773846   -1.346299   -1.118270
 H    3.495790   -2.349857   -0.680617
 H    5.327823   -1.305186   -2.706271
 H    3.584960   -1.369305   -2.748661
 H    4.038316    0.944584   -2.496306
 H    5.373182    0.666488   -1.384635
 H    3.892122   -0.008373    0.401353
 H    3.432634    1.588725   -0.149165
 H    2.029154   -0.828096   -1.306639
 H    1.438128    2.023325   -1.162250
 H    0.313807    1.137181    0.925786
 H    0.399493   -1.124631    2.831852
 H   -0.556750    0.528479    4.451674
 H   -0.409132    1.786847    3.238009
 H    1.930985    0.120173    4.328056
 H    1.557486    1.774177    4.819359
 H    2.082944    1.442930    3.168710
 H   -1.524010    5.696102    0.807183
 H   -0.226749    6.902543    0.798821
 H    0.002747    5.347969    1.615780
 H    2.060139    5.086137   -1.547440
 H    1.865796    6.529212   -0.548026
 H    2.141503    4.965107    0.220928
 H   -1.669194    0.797230   -3.768892
 H   -2.090537    2.514859   -3.771414
 H   -0.418210    2.002664   -4.086442
 H   -0.545738    3.858229   -2.549904
 H   -0.340189    5.711981   -1.395846
 H   -2.027355    1.747768   -0.109908
 H   -2.871114    2.707837   -1.315477
 H   -2.678808   -0.337084   -1.485953
 H   -3.674823    0.720538   -2.464713
 H   -5.085382    1.160272   -0.626267
 H   -1.431562   -0.752962    0.331010
 H   -3.724967   -1.710848    1.890525
 H   -5.492639   -2.947471    0.597826
 H   -5.784770   -4.877370   -0.920974
 H   -3.947709   -5.542097   -2.452179
 H   -1.824730   -4.254056   -2.444361
 H   -1.536642   -2.338486   -0.953707
