85 
5vfc_ligand_xtb.xyz
 C    5.440908   -2.081499    2.669695
 N    4.772537   -2.281190    1.412712
 C    5.319659   -1.864611    0.235015
 N    6.494729   -1.371856    0.217498
 N    4.494369   -2.112623   -0.859441
 C    4.601971   -1.339489   -2.070595
 C    4.367140    0.182456   -1.896861
 C    3.336253    0.509191   -0.816720
 C    1.941639   -0.076773   -1.080914
 C    1.445907   -0.743849    0.216049
 O    1.806213   -1.878550    0.483392
 N    1.027252    0.936735   -1.567456
 N    0.687490    0.008393    1.016857
 C    0.234127   -0.448153    2.310407
 C   -1.266052   -0.788711    2.373002
 O   -1.791137   -1.038600    3.436436
 C    0.576933    0.584204    3.387383
 C    2.079239    0.696710    3.610921
 O    0.083765    2.798843    0.372771
 C   -0.887583    5.801476   -0.057344
 C    1.517036    5.221798    0.421659
 C   -0.282450    0.673631   -1.655494
 C   -1.619292    1.753920   -3.443063
 N   -0.541548    3.137017   -1.769160
 C    0.342216    5.018994   -0.530476
 C   -0.047260    3.550320   -0.576084
 C   -1.216899    1.854254   -1.972653
 C   -2.438939    1.804778   -1.028442
 C   -3.403639    0.627122   -1.229541
 O   -0.721379   -0.453047   -1.500683
 N   -4.339781    0.563403   -0.138277
 N   -1.923325   -0.795794    1.194864
 C   -3.274659   -1.313059    1.105434
 C   -3.429136   -2.348191    0.014294
 C   -4.692897   -2.624082   -0.497835
 C   -4.857543   -3.576873   -1.486386
 C   -3.762090   -4.269124   -1.974663
 C   -2.505133   -4.012739   -1.456218
 C   -2.337185   -3.062288   -0.464320
 C   -4.331633   -0.200682    0.979901
 O   -5.177955   -0.031848    1.830796
 H    5.051800   -1.209463    3.208074
 H    5.325481   -2.965253    3.299253
 H    6.493115   -1.917608    2.449369
 H    3.781096   -2.466300    1.428636
 H    6.842055   -1.166904   -0.711581
 H    3.542586   -2.338075   -0.594987
 H    5.596738   -1.489345   -2.503807
 H    3.878878   -1.752378   -2.778168
 H    4.063352    0.602512   -2.857886
 H    5.305417    0.654753   -1.601269
 H    3.713175    0.126230    0.134141
 H    3.254144    1.593940   -0.706529
 H    1.996086   -0.878254   -1.827047
 H    1.373228    1.876237   -1.677489
 H    0.481400    0.975554    0.787133
 H    0.760627   -1.388903    2.520639
 H    0.078286    0.281399    4.308450
 H    0.171628    1.551742    3.081451
 H    2.488888   -0.258449    3.931812
 H    2.292351    1.436881    4.377974
 H    2.584443    0.998040    2.695089
 H   -1.725658    5.667136   -0.738913
 H   -0.655114    6.861880   -0.001646
 H   -1.186358    5.460148    0.930902
 H    2.410983    4.731742    0.041627
 H    1.727417    6.280888    0.542105
 H    1.279790    4.795891    1.393069
 H   -2.005684    0.760008   -3.648603
 H   -2.387104    2.487570   -3.681171
 H   -0.754026    1.923926   -4.081433
 H   -0.712244    3.835081   -2.477403
 H    0.617673    5.354373   -1.536615
 H   -2.071767    1.770264   -0.000279
 H   -2.990675    2.742141   -1.151158
 H   -2.856217   -0.311473   -1.291135
 H   -3.969177    0.757257   -2.157213
 H   -5.051286    1.283453   -0.118129
 H   -1.404459   -0.706148    0.330017
 H   -3.482829   -1.777734    2.082232
 H   -5.551756   -2.095462   -0.111270
 H   -5.844705   -3.781041   -1.874387
 H   -3.890154   -5.011556   -2.748522
 H   -1.647006   -4.557645   -1.820289
 H   -1.350234   -2.887933   -0.064433
