85 
5vfc_ligand_dft.xyz
 C    5.352467   -2.182397    2.217271
 N    4.597164   -2.489715    1.024660
 C    5.132449   -2.204835   -0.210490
 N    6.334961   -1.756846   -0.310337
 N    4.253136   -2.474447   -1.260287
 C    4.303193   -1.665236   -2.463918
 C    4.255242   -0.135588   -2.242807
 C    3.330131    0.290014   -1.101281
 C    1.857554   -0.151681   -1.255586
 C    1.390358   -0.817376    0.047257
 O    1.652844   -2.003437    0.251548
 N    1.017615    0.970886   -1.636571
 N    0.762427   -0.026539    0.935292
 C    0.374692   -0.479476    2.256105
 C   -1.130001   -0.758827    2.398629
 O   -1.603658   -0.994121    3.496456
 C    0.857113    0.505089    3.325481
 C    2.377763    0.635096    3.348150
 O    0.279522    2.842159    0.588086
 C   -0.674243    5.805009    0.595281
 C    1.801493    5.253432    0.561698
 C   -0.318462    0.802969   -1.727754
 C   -1.788328    2.165908   -3.194267
 N   -0.444381    3.288975   -1.523854
 C    0.466367    5.113628   -0.169001
 C    0.098923    3.645014   -0.322756
 C   -1.211678    2.057582   -1.777932
 C   -2.330321    1.935105   -0.710967
 C   -3.404046    0.861996   -0.940279
 O   -0.822554   -0.315905   -1.744955
 N   -4.289753    0.758601    0.198787
 N   -1.859810   -0.763362    1.245837
 C   -3.220038   -1.266383    1.237866
 C   -3.450600   -2.310388    0.149217
 C   -4.757137   -2.621375   -0.239234
 C   -4.995037   -3.589705   -1.207490
 C   -3.930923   -4.262821   -1.802418
 C   -2.629942   -3.965358   -1.412736
 C   -2.389258   -2.998186   -0.440165
 C   -4.298439   -0.162932    1.208155
 O   -5.174956   -0.143686    2.055786
 H    5.488005   -1.102188    2.369906
 H    4.832123   -2.605952    3.080693
 H    6.345246   -2.630555    2.141871
 H    3.588673   -2.449959    1.095949
 H    6.616045   -1.712518   -1.287762
 H    3.307747   -2.670030   -0.947740
 H    5.200208   -1.910166   -3.045218
 H    3.458417   -1.984855   -3.082372
 H    3.958197    0.345806   -3.183324
 H    5.257771    0.227480   -1.996803
 H    3.729357   -0.115468   -0.167262
 H    3.371786    1.380243   -0.981544
 H    1.760271   -0.929654   -2.016850
 H    1.384253    1.905777   -1.555326
 H    0.620375    0.959746    0.722443
 H    0.861466   -1.449083    2.408239
 H    0.478060    0.150894    4.287252
 H    0.397727    1.484638    3.140605
 H    2.855490   -0.335828    3.523812
 H    2.697904    1.315885    4.142553
 H    2.759323    1.027328    2.398841
 H   -1.628610    5.714158    0.065301
 H   -0.454181    6.869105    0.721575
 H   -0.789688    5.355250    1.586229
 H    2.619882    4.797918   -0.005486
 H    2.039077    6.310341    0.714114
 H    1.749587    4.760874    1.536178
 H   -2.265937    1.225181   -3.474138
 H   -2.536547    2.965123   -3.243413
 H   -0.996405    2.372718   -3.922273
 H   -0.599197    4.038845   -2.182995
 H    0.550236    5.571309   -1.163716
 H   -1.874615    1.758837    0.266036
 H   -2.818857    2.917195   -0.657163
 H   -2.951243   -0.107012   -1.142378
 H   -4.010250    1.105574   -1.820240
 H   -5.040110    1.430556    0.284570
 H   -1.370982   -0.660831    0.364412
 H   -3.372414   -1.726860    2.218560
 H   -5.594134   -2.110884    0.229312
 H   -6.016840   -3.819269   -1.495383
 H   -4.116336   -5.017253   -2.561241
 H   -1.790686   -4.485948   -1.864008
 H   -1.365056   -2.789094   -0.148034
