20 
5vfm_ligand_dft.xyz
 C    3.461413    0.035708    0.000173
 O    3.796265    1.194118    0.000867
 O    4.405599   -0.935620   -0.000704
 C    2.053084   -0.433374    0.000320
 C    1.061060    0.467996   -0.000137
 C   -0.379526    0.223982   -0.000110
 C   -0.947820   -1.060734    0.000212
 C   -2.318146   -1.241821    0.000273
 C   -3.166964   -0.129998    0.000006
 C   -2.626714    1.155723   -0.000348
 C   -1.248251    1.320967   -0.000406
 O   -4.500432   -0.368660    0.000131
 H    3.991559   -1.807856   -0.002254
 H    1.854606   -1.503406    0.000905
 H    1.370954    1.512528   -0.000548
 H   -0.308119   -1.938089    0.000394
 H   -2.756063   -2.234109    0.000537
 H   -3.279881    2.025273   -0.000598
 H   -0.835583    2.326266   -0.000658
 H   -4.977745    0.469985   -0.000014
