20 
5vfm_ligand_xtb.xyz
 C  -12.979921    6.624677  113.782683
 O  -12.139029    5.877228  113.357594
 O  -12.620349    7.723922  114.485384
 C  -14.427608    6.436924  113.595305
 C  -14.881166    5.375240  112.912139
 C  -16.252198    5.022944  112.625917
 C  -17.346482    5.786689  113.049456
 C  -18.635646    5.409890  112.751739
 C  -18.875652    4.249479  112.015874
 C  -17.798725    3.478444  111.587076
 C  -16.509950    3.862479  111.889326
 O  -20.159240    3.916075  111.745406
 H  -13.383118    8.242228  114.771745
 H  -15.089047    7.177520  114.024116
 H  -14.126800    4.698601  112.527426
 H  -17.186313    6.687940  113.619829
 H  -19.479989    5.996589  113.076936
 H  -17.978333    2.577013  111.015892
 H  -15.681764    3.257067  111.551776
 H  -20.191970    3.098251  111.233481
