54 
5vgi_ligand_aiqm1.xyz
 C    4.383905   -2.978634   -1.030606
 C    3.140266   -3.071424   -0.432944
 C    1.118901   -2.126753    0.544474
 C    2.049626    3.266132    1.386763
 C   -0.268730    2.681998    2.015271
 C    0.454000    2.331373   -0.390641
 C   -1.067725    1.310149   -1.993346
 C    0.146962    1.916107   -1.692486
 C   -3.489955   -0.688619   -0.433771
 C   -4.901044   -2.028390    1.005323
 C   -2.653331   -2.746664    0.551526
 O    0.502534   -1.007987    0.996675
 O    0.571578   -3.201926    0.591899
 C    2.474532   -1.912096   -0.021934
 N    4.993215   -1.804450   -1.247159
 C    4.372035   -0.700373   -0.858266
 C    3.107117   -0.668367   -0.223425
 N    2.568001    0.517423    0.195897
 C    2.897600    1.782703   -0.444159
 C    1.849886    2.844219   -0.079796
 C   -2.001503    1.098479   -0.983931
 C   -1.728722    1.555934    0.303975
 C   -0.517994    2.176465    0.612646
 C    0.771524    3.793504    2.022064
 N   -3.234209    0.417030   -1.275923
 C   -4.336328    1.326956   -1.537393
 C   -2.465729   -1.631646   -0.255642
 C   -3.877428   -2.946822    1.190873
 C   -4.717948   -0.898909    0.202712
 H    4.912275   -3.865088   -1.354729
 H    2.657109   -4.027840   -0.285306
 H    2.388111    2.400342    1.963083
 H    2.856078    4.001378    1.433182
 H   -1.209933    3.021080    2.451661
 H    0.086711    1.852933    2.637888
 H   -1.290095    0.983627   -3.001385
 H    0.875910    2.054961   -2.484642
 H   -5.857858   -2.178333    1.489964
 H   -1.850984   -3.463348    0.669655
 H   -0.400364   -1.266684    1.226062
 H    4.891388    0.231811   -1.044745
 H    1.628122    0.450240    0.549908
 H    2.964861    1.664164   -1.534747
 H    3.880952    2.127456   -0.103032
 H    2.042460    3.708808   -0.724198
 H   -2.469677    1.406856    1.083318
 H    0.398271    4.660940    1.466619
 H    0.964087    4.126778    3.043435
 H   -5.188103    0.773065   -1.931566
 H   -4.013303    2.041970   -2.294251
 H   -4.656470    1.886352   -0.644354
 H   -1.526002   -1.475262   -0.773198
 H   -4.028933   -3.813599    1.818311
 H   -5.533768   -0.202189    0.069042
