54 
5vgi_ligand_xtb.xyz
 C    4.528200   -2.925504   -0.831176
 C    3.343758   -3.019051   -0.134854
 C    1.336601   -2.076456    0.859579
 C    2.170725    3.174324    1.319246
 C   -0.014360    2.325567    2.110856
 C    0.414680    2.394823   -0.363959
 C   -1.279163    1.658018   -1.927113
 C   -0.052932    2.232656   -1.664237
 C   -3.606317   -0.570963   -0.350167
 C   -5.191822   -2.074829    0.665731
 C   -2.855667   -2.560906    0.801580
 O    0.681484   -0.955079    1.251490
 O    0.869207   -3.163496    1.104083
 C    2.601940   -1.864800    0.142389
 N    5.001368   -1.764227   -1.272878
 C    4.323169   -0.672746   -1.029354
 C    3.105101   -0.621250   -0.311669
 N    2.490293    0.551952   -0.058640
 C    2.797349    1.812063   -0.691332
 C    1.830196    2.882595   -0.150674
 C   -2.076408    1.211980   -0.874702
 C   -1.641852    1.442249    0.428385
 C   -0.418103    2.032757    0.694663
 C    0.933009    3.519184    2.135455
 N   -3.287878    0.548910   -1.103794
 C   -4.290268    1.179450   -1.927661
 C   -2.579178   -1.420232    0.078425
 C   -4.167304   -2.893536    1.105980
 C   -4.923303   -0.925525   -0.056222
 H    5.127577   -3.795187   -1.057511
 H    2.961120   -3.968080    0.206588
 H    2.634724    2.290058    1.761420
 H    2.896532    3.987962    1.367857
 H   -0.905123    2.523816    2.710350
 H    0.487931    1.455316    2.544256
 H   -1.601183    1.521501   -2.948445
 H    0.565319    2.550202   -2.492028
 H   -6.218251   -2.329241    0.888244
 H   -2.045514   -3.206011    1.110802
 H   -0.150026   -1.212843    1.683434
 H    4.757525    0.237490   -1.418310
 H    1.570041    0.497513    0.354441
 H    2.702367    1.730594   -1.782614
 H    3.827668    2.105439   -0.460772
 H    1.973524    3.791829   -0.744969
 H   -2.277466    1.144801    1.250937
 H    0.433328    4.392189    1.709871
 H    1.218101    3.756064    3.161734
 H   -4.825616    0.426391   -2.508380
 H   -3.808567    1.874608   -2.611533
 H   -5.014441    1.743920   -1.327027
 H   -1.561641   -1.180233   -0.192820
 H   -4.386054   -3.787149    1.670049
 H   -5.742518   -0.303045   -0.380351
