26 
5vh0_ligand_aiqm1.xyz
 C   35.228419   46.380613   -3.504308
 C   36.394482   46.382804   -2.742549
 C   36.328782   46.382840   -1.348748
 C   37.518204   46.385077   -0.530637
 C   37.438978   46.385144    0.821675
 C   36.162159   46.382993    1.495295
 C   36.064559   46.383129    2.887178
 C   34.817492   46.380997    3.507543
 C   33.651804   46.378690    2.746027
 C   33.717579   46.378520    1.351798
 C   34.981294   46.380708    0.714652
 C   35.064865   46.380635   -0.711408
 C   33.884191   46.378357   -1.491823
 C   33.981734   46.378409   -2.884150
 C   32.607459   46.376087   -0.818467
 C   32.528213   46.376162    0.533958
 H   35.291921   46.380635   -4.584677
 H   37.362213   46.384470   -3.229459
 H   38.482522   46.386705   -1.025103
 H   38.338951   46.386800    1.425382
 H   36.968754   46.384915    3.483868
 H   34.754444   46.381137    4.587935
 H   32.683844   46.376984    3.232498
 H   33.077271   46.376688   -3.480435
 H   31.707531   46.374261   -1.422224
 H   31.563935   46.374439    1.028479
