18 
5vkf_ligand_xtb.xyz
 C   47.736270   31.879668   14.294577
 C   47.981548   31.876596   15.638783
 C   49.299701   31.817640   16.118685
 C   50.349729   31.762780   15.246048
 C   50.130640   31.764312   13.852507
 C   51.192238   31.708571   12.925226
 C   50.946963   31.711655   11.581015
 C   49.628813   31.770610   11.101121
 C   48.578777   31.825461   11.973753
 C   48.797872   31.823923   13.367291
 H   46.723077   31.924944   13.920252
 H   47.163162   31.919507   16.342775
 H   49.475554   31.816077   17.184642
 H   51.366427   31.717275   15.610725
 H   52.205434   31.663282   13.299542
 H   51.765353   31.668757   10.877031
 H   49.452957   31.772175   10.035162
 H   47.562087   31.870968   11.609064
