18 
5vkf_ligand_ani-2x.xyz
 C   47.727030   31.880144   14.300079
 C   47.971498   31.877122   15.647230
 C   49.301983   31.817605   16.131614
 C   50.353285   31.762675   15.256210
 C   50.130608   31.764317   13.852495
 C   51.201477   31.708108   12.919723
 C   50.957008   31.711130   11.572569
 C   49.626529   31.770625   11.088185
 C   48.575225   31.825564   11.963594
 C   48.797902   31.823924   13.367300
 H   46.707551   31.925701   13.922455
 H   47.147507   31.920315   16.354924
 H   49.479765   31.815989   17.204019
 H   51.376918   31.716857   15.622405
 H   52.220960   31.662552   13.297345
 H   51.781008   31.667944   10.864881
 H   49.448744   31.772237   10.015780
 H   47.551601   31.871391   11.597392
