54 
5vom_ligand_xtb.xyz
 C    8.137410   -0.736967   -1.214131
 N    6.960476   -0.161846   -0.613586
 C    5.889698   -0.909665   -0.253454
 O    5.846188   -2.114682   -0.412620
 C    4.756896   -0.140091    0.342243
 C    3.473383   -0.632351    0.142342
 C    4.937821    1.007863    1.107962
 C    3.838314    1.657283    1.642230
 C    2.560644    1.177654    1.418995
 C    2.363482    0.019464    0.668388
 C    1.011656   -0.512370    0.452052
 C   -0.057517    0.349223    0.244568
 C   -1.352878   -0.117887    0.057445
 C    0.767072   -1.883010    0.485441
 C   -0.503467   -2.363790    0.253705
 C   -1.568059   -1.507363   -0.017327
 N   -2.848090   -2.008286   -0.290882
 C   -3.168792   -3.075609   -1.091819
 O   -4.328261   -3.414487   -1.222502
 C   -2.060619   -3.768972   -1.844549
 C   -3.927700   -1.118297    0.104784
 C   -4.028140   -0.996695    1.621592
 C   -3.663402    0.231047   -0.575429
 N   -2.422118    0.790152   -0.079774
 C   -2.383134    2.027258    0.519288
 O   -1.555845    2.347264    1.353865
 C   -3.384866    3.016871    0.086322
 O   -4.006381    2.970019   -1.118133
 C   -4.749593    4.077581   -1.223769
 C   -4.632752    4.852526   -0.108418
 C   -3.737950    4.171252    0.741557
 H    9.023122   -0.518867   -0.613873
 H    7.984879   -1.814446   -1.255584
 H    8.287378   -0.353776   -2.225810
 H    6.920263    0.840048   -0.524542
 H    3.357286   -1.528523   -0.448633
 H    5.930162    1.380561    1.319011
 H    3.980088    2.542632    2.244694
 H    1.711382    1.684164    1.852201
 H    0.123322    1.410295    0.227005
 H    1.566647   -2.569917    0.714298
 H   -0.688306   -3.423412    0.312208
 H   -1.221681   -3.109835   -2.045997
 H   -1.714282   -4.637602   -1.288855
 H   -2.485039   -4.129790   -2.779367
 H   -4.853021   -1.548219   -0.291763
 H   -3.120056   -0.573710    2.045878
 H   -4.867319   -0.358227    1.886382
 H   -4.188401   -1.979265    2.057984
 H   -3.601113    0.084470   -1.660135
 H   -4.490046    0.904597   -0.360556
 H   -5.310912    4.204602   -2.128678
 H   -5.116366    5.788634    0.079228
 H   -3.392162    4.471998    1.708519
