54 
5vom_ligand_aiqm1.xyz
 C    8.215407   -0.750954   -1.176793
 N    7.097272   -0.149463   -0.477339
 C    5.966675   -0.879665   -0.267002
 O    5.894578   -2.068081   -0.530527
 C    4.811899   -0.122907    0.319545
 C    3.531431   -0.632992    0.117398
 C    4.982335    1.048679    1.060442
 C    3.871468    1.707542    1.577386
 C    2.591266    1.209414    1.348108
 C    2.407713    0.026487    0.617046
 C    1.042877   -0.511396    0.394192
 C   -0.017893    0.353380    0.128787
 C   -1.313810   -0.116592   -0.049754
 C    0.778480   -1.879038    0.471734
 C   -0.507280   -2.365326    0.262377
 C   -1.561973   -1.505829   -0.047300
 N   -2.872307   -1.978406   -0.308285
 C   -3.209592   -3.122600   -1.008334
 O   -4.379077   -3.446803   -1.120966
 C   -2.126833   -3.950886   -1.660629
 C   -3.958969   -1.029636   -0.037866
 C   -4.180832   -0.845002    1.457957
 C   -3.616107    0.262916   -0.774219
 N   -2.377091    0.812818   -0.232943
 C   -2.397587    1.962875    0.532161
 O   -1.642942    2.167754    1.471655
 C   -3.388129    3.004976    0.183912
 O   -3.875834    3.129279   -1.086726
 C   -4.680101    4.220040   -1.090388
 C   -4.725633    4.794256    0.141518
 C   -3.870836    4.007836    0.972061
 H    9.061971   -0.068884   -1.144391
 H    8.486448   -1.678378   -0.680599
 H    7.970919   -0.984541   -2.214908
 H    7.003490    0.849665   -0.492490
 H    3.430059   -1.551806   -0.444913
 H    5.977886    1.422795    1.267213
 H    4.001186    2.607693    2.164626
 H    1.728782    1.724478    1.754046
 H    0.152325    1.419328    0.093424
 H    1.573106   -2.570985    0.716245
 H   -0.690625   -3.425995    0.348208
 H   -1.260072   -3.368099   -1.962253
 H   -1.800056   -4.737839   -0.980199
 H   -2.579593   -4.432286   -2.523789
 H   -4.848497   -1.456981   -0.490476
 H   -3.267651   -0.525563    1.966563
 H   -4.959420   -0.099566    1.636251
 H   -4.501298   -1.793170    1.890165
 H   -3.496732    0.059250   -1.839538
 H   -4.412134    0.986971   -0.643439
 H   -5.148711    4.454228   -2.029341
 H   -5.290176    5.670042    0.412852
 H   -3.620486    4.146466    2.009535
