54 
5vom_ligand_dft.xyz
 C    8.292532   -0.230038    1.431955
 N    7.103073   -0.762704    0.800697
 C    6.098647    0.072373    0.403762
 O    6.189692    1.287996    0.492488
 C    4.873310   -0.593314   -0.156294
 C    3.676295    0.117039   -0.090415
 C    4.890491   -1.861800   -0.739751
 C    3.711562   -2.412807   -1.231341
 C    2.517888   -1.706061   -1.146203
 C    2.486727   -0.427328   -0.576163
 C    1.217557    0.336841   -0.501534
 C    0.024958   -0.315422   -0.205384
 C   -1.195361    0.361088   -0.151483
 C    1.184530    1.709952   -0.759691
 C   -0.012021    2.399391   -0.683163
 C   -1.202508    1.761092   -0.325405
 N   -2.412807    2.482477   -0.208496
 C   -2.585290    3.694938    0.448765
 O   -3.688660    4.212122    0.507821
 C   -1.400717    4.355135    1.124843
 C   -3.616389    1.703533   -0.497411
 C   -3.733123    1.354552   -1.977877
 C   -3.579339    0.477509    0.414525
 N   -2.402502   -0.339816    0.107008
 C   -2.549469   -1.660788   -0.298229
 O   -1.796824   -2.227264   -1.072956
 C   -3.668587   -2.432802    0.286212
 O   -4.233224   -2.075934    1.473778
 C   -5.150394   -3.019469    1.773121
 C   -5.193236   -3.976518    0.808370
 C   -4.218302   -3.597180   -0.159514
 H    9.088374   -0.976958    1.386641
 H    8.605916    0.665206    0.893110
 H    8.115700    0.046636    2.478589
 H    6.882515   -1.734515    0.950565
 H    3.690387    1.102517    0.364571
 H    5.824328   -2.406066   -0.850132
 H    3.726474   -3.391319   -1.701492
 H    1.605102   -2.133231   -1.552544
 H    0.040689   -1.379484   -0.014598
 H    2.088678    2.231960   -1.056900
 H   -0.038772    3.454466   -0.927598
 H   -0.654971    3.647369    1.490675
 H   -0.908375    5.052009    0.439593
 H   -1.804991    4.938324    1.953435
 H   -4.457222    2.329815   -0.199262
 H   -2.889044    0.749576   -2.324269
 H   -4.653899    0.789976   -2.158380
 H   -3.767897    2.270849   -2.573114
 H   -3.557415    0.796600    1.461856
 H   -4.478660   -0.115299    0.259468
 H   -5.681921   -2.876464    2.701208
 H   -5.834109   -4.845687    0.792824
 H   -3.941671   -4.110829   -1.067944
