58 
5vqs_ligand_dft.xyz
 C   -4.583873   -0.270067    0.684477
 C   -3.239156    0.088608    0.762998
 C   -3.414350    0.105059    3.181586
 O    0.192223   -2.452955   -1.910954
 C   -2.943373    0.156648   -1.602366
 C   -1.206705    2.524341   -2.438969
 C    1.329766    1.826487   -1.390299
 C   -0.289985    0.089669    1.722419
 C    0.922696    0.743874    1.794105
 C    2.088275    0.045176    1.359364
 C    1.997270   -1.269004    0.819234
 C    0.716542   -1.881569    0.765880
 C    3.368639    0.654059    1.415838
 C    4.385857   -1.307838    0.401227
 C    3.163923   -1.916792    0.339345
 C    5.773536    0.631127    1.028417
 C    1.009312    2.168975    2.269341
 C    0.311324   -3.379908   -1.119738
 C    0.191347   -4.809446   -1.526514
 C   -0.017098   -5.129899   -2.800240
 C   -2.663089    0.282323    2.031642
 C   -4.756320   -0.260013    3.096026
 C   -5.334625   -0.440357    1.847426
 O   -1.385157    0.772689    2.169671
 O   -2.410546    0.247166   -0.293333
 C   -1.768765    0.158924   -2.571996
 N   -0.800065    1.207128   -2.276745
 N   -0.280125    3.457999   -2.026477
 C    0.980010    3.232405   -1.450242
 C    0.435760    0.890922   -1.761991
 C   -0.391540   -1.228428    1.227765
 C    4.486792   -0.004186    0.952898
 O   -2.293027    2.825302   -2.900817
 O    1.651172    4.166722   -1.050623
 N    0.572260   -3.185737    0.207331
 N    6.818146    1.129686    1.089531
 H   -5.058774   -0.402459   -0.280500
 H   -2.932189    0.275466    4.138550
 H   -3.612486    1.002164   -1.789016
 H   -3.495369   -0.782802   -1.737050
 H    2.299534    1.553106   -0.999674
 H    3.474026    1.654962    1.817633
 H    5.277291   -1.803471    0.033115
 H    3.073251   -2.910569   -0.085974
 H    1.422093    2.816086    1.486074
 H    0.022674    2.548296    2.533327
 H    1.653556    2.257652    3.151503
 H    0.280432   -5.576940   -0.760356
 H   -0.101238   -4.349016   -3.550322
 H   -0.106000   -6.162138   -3.122309
 H   -5.340822   -0.392150    4.000262
 H   -6.381887   -0.713181    1.764015
 H   -2.154239    0.295867   -3.585869
 H   -1.237525   -0.792519   -2.514935
 H   -0.575297    4.422880   -2.103314
 H    0.633704   -0.174157   -1.681351
 H   -1.356204   -1.720091    1.185758
 H    0.693624   -3.988446    0.807606
