58 
5vqs_ligand_xtb.xyz
 C  460.219433    3.256970  117.765452
 C  460.773985    2.991008  119.011345
 C  462.958405    3.424721  118.065574
 O  458.431848    4.385868  123.566131
 C  458.665431    2.430069  119.973276
 C  459.073722   -0.190021  121.314080
 C  460.275241    0.351127  123.792604
 C  462.385071    3.124597  121.534550
 C  462.801205    2.389296  122.631150
 C  462.393705    2.802926  123.923473
 C  461.515090    3.911687  124.084883
 C  461.109336    4.619698  122.929545
 C  462.831313    2.129836  125.083111
 C  461.536942    3.625676  126.484926
 C  461.103757    4.295289  125.379810
 C  462.875172    1.853735  127.487180
 C  463.667356    1.181990  122.442411
 C  458.883823    5.494881  123.339943
 C  458.068680    6.731611  123.366711
 C  456.773137    6.686828  123.640038
 C  462.171323    3.083444  119.155289
 C  462.389614    3.682762  116.831610
 C  461.018739    3.599102  116.686898
 O  462.840416    2.746360  120.306871
 O  460.052860    2.653708  120.121388
 C  458.094103    2.034366  121.338594
 N  458.899044    1.012377  121.976662
 N  459.937385   -1.059784  121.926763
 C  460.613160   -0.890774  123.135224
 C  459.471960    1.244346  123.187154
 C  461.571611    4.259030  121.692969
 C  462.416202    2.530498  126.333312
 O  458.507475   -0.457016  120.278157
 O  461.393855   -1.731731  123.522726
 N  460.196416    5.700638  123.046536
 N  463.243964    1.320403  128.432545
 H  459.153657    3.184947  117.622384
 H  464.026550    3.471171  118.209299
 H  458.492910    1.623555  119.251566
 H  458.156147    3.342282  119.634738
 H  460.702354    0.541325  124.760867
 H  463.501138    1.289322  124.995730
 H  461.226733    3.921330  127.475704
 H  460.439648    5.139054  125.489460
 H  463.804621    0.988874  121.382790
 H  464.647312    1.336689  122.892715
 H  463.214992    0.304584  122.902152
 H  458.578234    7.662871  123.161062
 H  456.300118    5.739993  123.845042
 H  456.155805    7.567793  123.671112
 H  463.015748    3.944784  115.993572
 H  460.557688    3.794215  115.731052
 H  457.079265    1.656661  121.182017
 H  458.069223    2.896023  122.007519
 H  460.102506   -1.931107  121.434355
 H  459.231197    2.197115  123.637610
 H  461.295707    4.837777  120.823149
 H  460.485871    6.598521  122.688714
