58 
5vqw_ligand_xtb.xyz
 C  846.849589  -25.738543  141.316500
 C  845.933783  -26.283971  142.204717
 C  847.628925  -26.220485  143.930084
 O  843.741245  -23.288547  142.145574
 C  844.085161  -26.114705  140.704061
 C  842.106335  -28.382854  139.452488
 C  842.179287  -29.911843  141.811908
 C  844.206832  -26.607133  144.570252
 C  843.257790  -27.445029  145.130119
 C  841.929399  -26.969519  145.272784
 C  841.565672  -25.668770  144.814245
 C  842.586611  -24.833427  144.281756
 C  840.927477  -27.777241  145.848558
 C  839.261322  -26.069506  145.452137
 C  840.216000  -25.263748  144.903550
 C  838.641801  -28.162267  146.540310
 C  843.642902  -28.826167  145.568144
 C  842.866391  -22.832509  142.855098
 C  842.314348  -21.466874  142.689268
 C  842.748423  -20.672666  141.721370
 C  846.332150  -26.502681  143.535637
 C  848.537015  -25.696472  143.026465
 C  848.140353  -25.447125  141.726684
 O  845.484872  -27.066310  144.465494
 O  844.658100  -26.644737  141.883123
 C  842.583876  -26.396052  140.758468
 N  842.308220  -27.816533  140.702095
 N  841.913256  -29.738480  139.466418
 C  841.934282  -30.603224  140.563588
 C  842.357226  -28.579162  141.827483
 C  843.873913  -25.296344  144.188607
 C  839.626144  -27.339424  145.945845
 O  842.090660  -27.727625  138.436250
 O  841.759082  -31.789269  140.409178
 N  842.276526  -23.528984  143.874328
 N  837.839870  -28.821087  147.026974
 H  846.561584  -25.548582  140.295344
 H  847.906390  -26.413087  144.954685
 H  844.515790  -26.588708  139.812976
 H  844.240837  -25.030869  140.665936
 H  842.214726  -30.500737  142.710946
 H  841.179468  -28.755374  146.225617
 H  838.231925  -25.751104  145.515702
 H  839.915976  -24.300431  144.516796
 H  844.669359  -29.026548  145.276631
 H  843.568618  -28.920185  146.651171
 H  842.998167  -29.576477  145.113481
 H  841.553646  -21.147179  143.388320
 H  843.510084  -21.021365  141.043045
 H  842.370832  -19.675624  141.575574
 H  849.544276  -25.476481  143.343350
 H  848.836572  -25.027020  141.017281
 H  842.106475  -25.928816  139.894976
 H  842.172730  -25.990171  141.684302
 H  841.753882  -30.166359  138.560511
 H  842.553689  -28.035722  142.739882
 H  844.647576  -24.648084  143.810183
 H  841.499761  -23.090264  144.346031
