58 
5vqw_ligand_ani-2x.xyz
 C  846.572240  -25.622403  140.961564
 C  845.594740  -26.281645  141.702068
 C  846.908689  -25.962173  143.708054
 O  844.276271  -22.296781  143.964028
 C  844.201528  -26.738710  139.817887
 C  843.381289  -29.746764  138.972271
 C  842.563111  -30.570649  141.561490
 C  843.687370  -26.449751  144.231068
 C  842.706946  -27.252920  144.772406
 C  841.542575  -26.626687  145.306754
 C  841.373479  -25.216697  145.204375
 C  842.389006  -24.453755  144.533353
 C  840.534591  -27.381003  145.961439
 C  839.261290  -25.376291  146.413074
 C  840.218662  -24.624882  145.790030
 C  838.408447  -27.576814  147.139560
 C  842.893485  -28.747482  144.794391
 C  843.073055  -22.106491  144.020552
 C  842.471135  -20.758103  143.794073
 C  843.247433  -19.716631  143.512222
 C  845.772353  -26.443244  143.086168
 C  847.887166  -25.300727  142.965159
 C  847.713824  -25.133296  141.598201
 O  844.827431  -27.113953  143.821951
 O  844.436947  -26.781434  141.213639
 C  842.875624  -27.441640  139.579001
 N  842.907394  -28.856686  139.933369
 N  843.376321  -31.065202  139.376776
 C  843.000986  -31.591937  140.619029
 C  842.538254  -29.280766  141.188145
 C  843.547415  -25.053191  144.097823
 C  839.419958  -26.779863  146.492566
 O  843.759578  -29.397117  137.871405
 O  843.060432  -32.786762  140.825824
 N  842.150703  -23.086361  144.315605
 N  837.593176  -28.213839  147.660727
 H  846.451194  -25.482759  139.890985
 H  847.011826  -26.104518  144.779701
 H  845.005983  -27.245506  139.268464
 H  844.138273  -25.698407  139.470957
 H  842.270810  -30.892808  142.554066
 H  840.654249  -28.455505  146.059480
 H  838.381623  -24.908057  146.845247
 H  840.088721  -23.544670  145.779114
 H  843.694519  -29.043990  144.110688
 H  843.176668  -29.110249  145.792801
 H  841.974897  -29.274212  144.503119
 H  841.389784  -20.652191  143.869913
 H  844.325034  -19.846396  143.445063
 H  842.835834  -18.725941  143.343982
 H  848.777102  -24.920666  143.459297
 H  848.469435  -24.619691  141.008876
 H  842.606624  -27.370185  138.525010
 H  842.099723  -26.966665  140.184399
 H  843.705422  -31.726392  138.684752
 H  842.233441  -28.473221  141.850208
 H  844.314135  -24.435498  143.650188
 H  841.179002  -22.818325  144.309941
