63 
5vqy_ligand_aiqm1.xyz
 N   50.155663  -46.296221   33.726796
 C   52.396784  -43.627091   35.707981
 N   49.566251  -48.114873   35.043456
 N   47.885407  -39.800140   39.377015
 C   52.395477  -42.349270   37.765032
 N   46.500264  -46.429332   42.893521
 C   54.458793  -43.248775   36.907859
 C   52.255316  -45.002296   33.774445
 C   50.479447  -47.567126   34.174506
 C   53.773246  -43.795432   35.818546
 C   51.709219  -42.891056   36.683658
 C   53.776185  -42.532057   37.877273
 O   50.355931  -42.717054   36.473504
 O   51.632655  -44.125268   34.696296
 C   51.149122  -45.595742   32.922197
 C   48.413622  -47.522607   35.571205
 C   48.150101  -46.201764   35.026115
 C   49.025179  -45.646521   34.161569
 C   49.576410  -42.602151   37.609100
 C   49.217311  -43.713573   38.335665
 C   48.380045  -43.521430   39.479981
 C   47.939643  -42.219381   39.839518
 C   48.331997  -41.108461   39.035274
 C   49.133293  -41.306308   37.945635
 C   47.985035  -44.615521   40.293390
 C   47.198451  -44.417841   41.405771
 C   46.761978  -43.116139   41.764258
 C   47.126616  -42.043873   40.993896
 O   51.489290  -48.150405   33.830820
 O   47.758300  -48.106802   36.410289
 C   46.812922  -45.535151   42.224667
 C   49.709039  -45.077152   37.936806
 C   48.558941  -39.012609   40.281081
 O   48.124411  -37.930416   40.627457
 C   49.866873  -39.573426   40.811874
 C   46.619593  -39.338347   38.823932
 C   50.565694  -38.590671   41.737075
 H   49.797438  -49.034283   35.386400
 H   51.851203  -41.793966   38.520032
 H   55.526175  -43.394183   36.988404
 H   52.788094  -45.800778   34.296781
 H   52.959651  -44.461570   33.136092
 H   54.310250  -44.363154   35.072472
 H   54.305723  -42.113941   38.720252
 H   50.639064  -44.805851   32.370456
 H   51.580673  -46.304097   32.219280
 H   47.274844  -45.669181   35.364006
 H   48.903637  -44.643195   33.774559
 H   49.448460  -40.480878   37.314467
 H   48.301771  -45.616542   40.039976
 H   46.145016  -42.993000   42.642736
 H   46.798079  -41.049729   41.261562
 H   48.885072  -45.787778   37.841326
 H   50.216931  -45.036509   36.976029
 H   50.405009  -45.481600   38.676663
 H   50.505912  -39.825618   39.960635
 H   49.650493  -40.509157   41.335141
 H   46.663852  -39.347551   37.731836
 H   45.797131  -39.984995   39.144412
 H   46.450501  -38.325364   39.177355
 H   50.785846  -37.662574   41.212710
 H   49.925664  -38.343482   42.581225
 H   51.497411  -39.012643   42.112726
