16 
5w1e_ligand_ani-2x.xyz
 C    0.017739   70.930716   21.158315
 O    0.585988   70.226480   20.365081
 O   -0.936120   71.791107   20.735317
 C    0.310887   70.912970   22.626233
 C    1.557381   70.429788   23.032541
 C    1.896829   70.374094   24.372879
 C    0.969716   70.785942   25.332711
 C   -0.291113   71.243124   24.944819
 C   -0.612788   71.305358   23.594889
 O    1.352224   70.710761   26.635045
 H   -1.195296   72.389646   21.448896
 H    2.253166   70.096237   22.267849
 H    2.866704   70.011314   24.698793
 H   -1.016474   71.557191   25.694079
 H   -1.613900   71.631151   23.314492
 H    0.628456   71.017322   27.195562
