77 
5w38_ligand_aiqm1.xyz
 C    6.050773    1.265658    0.079820
 C    5.284923    0.417635    1.102537
 C    4.142579   -0.310825    0.416350
 C    3.295019    0.715748   -0.326738
 C    4.178035    1.471032   -1.320352
 C    3.423693    2.498120   -2.133460
 C    7.053290   -0.169874    2.693292
 C    7.680927   -1.307062    3.463626
 N    6.160926   -0.552260    1.733220
 O    3.421778   -1.015357    1.413008
 O    2.225465    0.115109   -1.052838
 O    5.178262    2.162050   -0.590947
 O    2.632158    3.350583   -1.312904
 O    7.326341    1.000017    2.899648
 C    1.004026    0.082440   -0.388924
 C   -0.116917    0.349573   -1.380135
 C   -1.493308    0.180815   -0.727577
 C   -1.555810   -1.151283    0.026889
 C   -0.336724   -1.353723    0.928692
 C   -0.301996   -2.725733    1.565440
 C   -0.393506    1.962938   -3.197957
 C   -0.040900    3.328826   -3.720659
 N    0.045310    1.676820   -1.948150
 O   -2.526106    0.208537   -1.696587
 O   -2.664838   -1.231472    0.930733
 O    0.874134   -1.203736    0.179867
 O   -0.493574   -3.695231    0.544054
 O   -1.071871    1.166013   -3.841406
 C   -3.926211   -1.296617    0.353769
 C   -4.819062   -2.156905    1.254493
 C   -6.252363   -2.101663    0.744593
 C   -6.700396   -0.656352    0.536531
 C   -5.707476    0.050364   -0.375471
 C   -5.991887    1.507487   -0.640886
 O   -4.852800   -1.685881    2.595409
 O   -7.146348   -2.777035    1.610889
 O   -7.982065   -0.622457   -0.064686
 O   -4.427709    0.015240    0.273155
 O   -5.083508    2.037347   -1.591200
 H    6.544878    0.598749   -0.642725
 H    6.802301    1.865217    0.579874
 H    4.868031    1.089848    1.861286
 H    4.557952   -1.019096   -0.314134
 H    2.890270    1.418091    0.410344
 H    4.636979    0.749132   -2.010241
 H    4.134507    3.075281   -2.727057
 H    2.723487    1.990772   -2.797899
 H    7.662331   -2.243439    2.905264
 H    8.704845   -1.040471    3.710064
 H    7.133309   -1.443851    4.396967
 H    5.808055   -1.495436    1.775577
 H    2.617069   -1.352861    0.999891
 H    3.235589    3.870484   -0.776882
 H    0.984540    0.838122    0.411609
 H   -0.050415   -0.383700   -2.186130
 H   -1.658807    0.993843   -0.004748
 H   -1.617540   -1.963074   -0.707145
 H   -0.362293   -0.606433    1.735348
 H    0.654746   -2.858122    2.072824
 H   -1.107103   -2.781141    2.305076
 H    0.125527    3.264428   -4.792863
 H   -0.891214    3.988021   -3.550331
 H    0.835055    3.745471   -3.222641
 H    0.651530    2.335419   -1.477310
 H   -2.150703    0.397045   -2.574202
 H   -0.286785   -4.559979    0.898292
 H   -3.884088   -1.753507   -0.642132
 H   -4.455112   -3.190480    1.238136
 H   -6.298118   -2.621279   -0.214697
 H   -6.712344   -0.149518    1.512878
 H   -5.658784   -0.485511   -1.335609
 H   -6.997180    1.613417   -1.048810
 H   -5.934818    2.059650    0.307341
 H   -3.987446   -1.325994    2.794678
 H   -6.870480   -2.564706    2.508173
 H   -8.524065   -1.260866    0.408070
 H   -4.216572    1.657886   -1.411678
