54 
5w3i_ligand_ani-2x.xyz
 N   -1.423899   -0.214880   -1.513204
 C   -4.905364    0.691290    3.804227
 O   -2.519795   -2.153402   -1.890551
 C    0.654314   -1.571989   -1.501291
 C    2.555995   -2.119335   -0.371758
 C    2.156107   -3.411494   -0.118274
 C    0.822852   -3.842506   -0.602465
 C    3.900174   -1.656569    0.123300
 C    5.466634    0.232272    0.197396
 C    0.088032    1.587332   -1.484215
 C    0.403374    0.683769   -2.677587
 C   -0.252732   -0.643984   -2.299846
 C    5.216030    1.601461    0.795769
 C   -1.336896    1.189809   -1.091619
 C   -2.506704   -1.013336   -1.418362
 C   -3.732138   -0.459299   -0.694376
 C   -6.231630    0.925384    3.443222
 C   -6.611226    0.771499    2.117542
 C   -5.685343    0.386685    1.148455
 C   -4.362619    0.156366    1.520265
 C   -3.971335    0.309629    2.853809
 N    1.818495   -1.191506   -1.057822
 N    0.158332   -2.828146   -1.284904
 N    4.204830   -0.381060   -0.152945
 O    2.850586   -4.325613    0.533101
 O    0.330717   -4.938010   -0.441293
 O    4.646978   -2.424300    0.746057
 O   -3.373055   -0.213347    0.653552
 O    4.526887    2.368162   -0.165292
 C    4.182644    3.642426    0.315559
 H   -4.595964    0.808474    4.839820
 H    6.109718    0.329008   -0.687185
 H    5.969918   -0.420902    0.913696
 H    0.773451    1.353291   -0.662743
 H    0.176790    2.651494   -1.717456
 H   -0.066739    1.066854   -3.590590
 H    1.474438    0.576167   -2.862487
 H   -0.612885   -1.205189   -3.167416
 H    6.169266    2.083441    1.071054
 H    4.608139    1.500133    1.709823
 H   -2.080943    1.794802   -1.626024
 H   -1.531024    1.276833   -0.021615
 H   -4.094142    0.462667   -1.170824
 H   -4.509750   -1.228119   -0.762860
 H   -6.959090    1.224835    4.192455
 H   -7.642535    0.949869    1.820320
 H   -6.004651    0.272429    0.117496
 H   -2.934705    0.124480    3.121358
 H   -0.799259   -3.023748   -1.585943
 H    3.525595    0.169173   -0.665443
 H    3.703803   -3.894455    0.795938
 H    3.518301    3.580112    1.192477
 H    5.073928    4.225740    0.596751
 H    3.658293    4.165201   -0.488352
