54 
5w3i_ligand_xtb.xyz
 N   -1.377472   -0.339497   -1.577777
 C   -4.519183    1.164797    3.709417
 O   -2.471765   -2.262690   -1.928557
 C    0.665396   -1.675574   -1.632371
 C    2.600411   -2.137484   -0.522313
 C    2.213004   -3.422388   -0.222450
 C    0.889113   -3.896931   -0.672625
 C    3.906932   -1.622465   -0.054738
 C    5.297965    0.399766    0.009056
 C    0.179741    1.421241   -1.518397
 C    0.425680    0.576065   -2.765680
 C   -0.243444   -0.748026   -2.407963
 C    4.839529    1.541816    0.916247
 C   -1.235843    1.025449   -1.102322
 C   -2.435662   -1.146099   -1.433598
 C   -3.624779   -0.594230   -0.653069
 C   -5.867118    1.318666    3.423981
 C   -6.343428    0.959236    2.177699
 C   -5.490656    0.449530    1.211178
 C   -4.140914    0.296040    1.498731
 C   -3.659972    0.658703    2.756622
 N    1.816265   -1.267932   -1.231061
 N    0.195512   -2.925425   -1.386083
 N    4.168627   -0.367004   -0.442488
 O    2.960929   -4.272440    0.466929
 O    0.414432   -4.988637   -0.471777
 O    4.677459   -2.308886    0.618947
 O   -3.202714   -0.186625    0.626863
 O    3.986785    2.380533    0.166229
 C    3.482614    3.459837    0.908214
 H   -4.135980    1.439518    4.680687
 H    5.822354    0.817774   -0.854963
 H    5.960911   -0.273397    0.556493
 H    0.892393    1.139873   -0.744876
 H    0.266893    2.488330   -1.708978
 H   -0.067516    1.017352   -3.632058
 H    1.481890    0.442716   -2.978950
 H   -0.626163   -1.292049   -3.279706
 H    5.711324    2.106021    1.279622
 H    4.301093    1.137222    1.786907
 H   -1.982810    1.664094   -1.589748
 H   -1.385251    1.075183   -0.023546
 H   -4.054367    0.251588   -1.213029
 H   -4.369415   -1.397009   -0.587711
 H   -6.539446    1.713652    4.169860
 H   -7.391984    1.072588    1.945474
 H   -5.891232    0.174459    0.248147
 H   -2.609354    0.527045    2.963158
 H   -0.754873   -3.155982   -1.688794
 H    3.433465    0.119376   -0.937050
 H    3.801598   -3.802767    0.713034
 H    2.887773    3.112769    1.762377
 H    4.291536    4.099208    1.281810
 H    2.849918    4.032990    0.233696
