47 
5w84_ligand_xtb.xyz
 C    7.766311   42.581777   11.517755
 C    7.447595   43.841631   11.032250
 C    8.013518   44.973058   11.595611
 C    8.890461   44.858649   12.659438
 C    9.206165   43.603922   13.155491
 C   11.481513   42.692106    8.036500
 C   11.207794   43.356344    9.239091
 C   12.241511   43.583987   10.116097
 C   13.544851   43.175448    9.813038
 C   13.837557   42.549297    8.617850
 C   12.793399   42.314753    7.738580
 C    7.154899   41.324221   10.934729
 C    6.416096   41.976125    7.304524
 C    7.149299   42.278825    6.161194
 N    8.454267   42.427557    6.111270
 C    9.147136   42.282165    7.252641
 C    8.544419   41.953476    8.457247
 C    7.154123   41.809496    8.516502
 N    6.517058   41.498269    9.659730
 N   10.498201   42.439361    7.091272
 C    4.951536   41.844060    7.297198
 N    4.342369   41.747490    6.090362
 O    4.266682   41.820531    8.317344
 C    8.653941   42.473327   12.581918
 C   12.258443   44.254663   11.450811
 C   13.721160   44.166685   11.869638
 N   14.385598   43.527281   10.859815
 O   14.228518   44.571207   12.886848
 H    6.753818   43.941498   10.210747
 H    7.761440   45.947776   11.204424
 H    9.325843   45.741241   13.103733
 H    9.880175   43.507406   13.994779
 H   10.214274   43.711005    9.461526
 H   14.844056   42.249021    8.371033
 H   12.993030   41.827604    6.795600
 H    6.395835   40.951733   11.629648
 H    7.933655   40.552884   10.859504
 H    6.660208   42.444717    5.209039
 H    9.144360   41.797782    9.336239
 H    5.502139   41.535882    9.603864
 H   10.786862   42.431034    6.123005
 H    3.341575   41.644124    6.085074
 H    4.842343   41.672905    5.225034
 H    8.906348   41.494828   12.966415
 H   11.621590   43.755005   12.182143
 H   11.941818   45.297738   11.407113
 H   15.375808   43.343008   10.881934
