27 
5wcl_ligand_aiqm1.xyz
 C    7.210142    3.523670    2.450017
 C   -0.886190    2.361467   -1.321054
 C   -0.866199    1.951510    0.009441
 C    0.246398    2.964438   -1.858190
 C    5.686701    2.049933   -0.699420
 C    6.628207    2.483719    0.224124
 C    0.273795    2.127057    0.784372
 C    1.389192    3.156477   -1.086418
 C    4.320102    2.174364   -0.455766
 C    4.844127    3.188132    1.669918
 C    6.208354    3.055839    1.428914
 C    1.422306    2.722158    0.245976
 C    3.885146    2.763664    0.738792
 N    2.535487    2.931528    1.070020
 H    7.873471    2.708968    2.745947
 H    7.835807    4.320740    2.043945
 H    6.711265    3.901837    3.343124
 H   -1.770770    2.220276   -1.925584
 H   -1.738729    1.488260    0.451316
 H    0.244612    3.301895   -2.886979
 H    6.015065    1.594747   -1.625583
 H    7.684669    2.373888    0.015394
 H    0.272146    1.809677    1.822394
 H    2.256825    3.644417   -1.510691
 H    3.605317    1.806879   -1.177376
 H    4.508178    3.630356    2.604308
 H    2.343576    2.898104    2.055258
