25 
5wg8_ligand_xtb.xyz
 C   -0.248742    0.832718    0.255353
 C   -1.398539   -1.435176   -0.431573
 C   -0.289905   -0.412560   -0.677181
 C    1.083534   -1.043383   -0.349403
 C    1.108193    0.608935    0.965745
 C    2.196447   -0.184495   -0.981474
 C    2.240658    1.000528   -0.000988
 C   -1.389759    0.998166    1.265894
 O    1.220264   -0.799545    1.034865
 O   -2.639231   -0.914604   -0.875704
 O   -2.597882    1.390432    0.675194
 H   -0.226248    1.745321   -0.344400
 H   -1.157134   -2.341368   -1.005754
 H   -1.440673   -1.707514    0.629302
 H   -0.356852   -0.111001   -1.724032
 H    1.155697   -2.109733   -0.555619
 H    1.178293    1.043263    1.960501
 H    1.952686    0.111319   -1.999128
 H    3.137897   -0.731024   -0.990743
 H    3.190998    1.041660    0.528936
 H    2.061832    1.961111   -0.477457
 H   -1.512944    0.081427    1.860074
 H   -1.122527    1.805962    1.954768
 H   -3.331495   -1.562755   -0.710835
 H   -2.814767    0.732015   -0.006441
