25 
5wg8_ligand_ani-2x.xyz
 C   -0.247716    0.821537    0.246052
 C   -1.378402   -1.454811   -0.427873
 C   -0.282006   -0.430771   -0.696298
 C    1.095383   -1.049117   -0.380467
 C    1.099328    0.601734    0.967705
 C    2.210235   -0.176922   -0.985111
 C    2.236556    1.006929    0.016413
 C   -1.410757    1.000982    1.226953
 O    1.229070   -0.819704    1.024822
 O   -2.641328   -0.904753   -0.800178
 O   -2.573856    1.481896    0.604952
 H   -0.227363    1.740436   -0.356156
 H   -1.181728   -2.363692   -1.016874
 H   -1.376188   -1.738738    0.633289
 H   -0.372401   -0.125107   -1.745313
 H    1.175732   -2.121417   -0.579499
 H    1.156079    1.010966    1.980310
 H    1.988083    0.122935   -2.014638
 H    3.162645   -0.715283   -0.988680
 H    3.189231    1.051305    0.552716
 H    2.062913    1.983463   -0.446737
 H   -1.597376    0.071143    1.785153
 H   -1.123780    1.756654    1.969067
 H   -3.332663   -1.534261   -0.560919
 H   -2.859889    0.784298   -0.008789
