28 
5wi1_ligand_aiqm1.xyz
 N   -0.746240   -0.634295    0.262751
 C    4.193490   -0.291658    0.405499
 C    3.506989   -1.579509   -0.007627
 C    1.977366   -1.420186    0.059704
 C   -2.117841   -0.307656    0.116923
 C   -2.673350    0.860353    0.651627
 C   -4.854386    0.213265   -0.167800
 C    1.575930    0.043004    0.310527
 C    0.105824    0.302077    0.127421
 C    2.421910    0.987572   -0.528604
 O    3.752108    0.793443   -0.423833
 O    1.997799    1.864496   -1.229233
 C   -4.035312    1.113439    0.507193
 C   -4.303961   -0.955438   -0.689995
 C   -2.945788   -1.218384   -0.541090
 H    4.002278   -0.045589    1.454568
 H    5.268760   -0.336263    0.255068
 H    3.850394   -2.389547    0.635448
 H    3.818410   -1.817082   -1.025137
 H    1.525295   -1.750632   -0.873107
 H    1.540679   -2.035563    0.844043
 H   -2.048542    1.560888    1.194605
 H   -5.910675    0.417589   -0.280376
 H    1.818079    0.300104    1.350948
 H   -0.174059    1.330707   -0.119031
 H   -4.455058    2.019554    0.924966
 H   -4.931056   -1.666057   -1.212319
 H   -2.507665   -2.122227   -0.945774
