12 
5wic_ligand_aiqm1.xyz
 C    0.814396  -14.238468  -19.997333
 C    0.102856  -15.515049  -19.835766
 C   -0.063512  -16.580548  -20.666616
 C   -0.856593  -17.523940  -19.942781
 C   -1.108319  -16.956808  -18.731591
 O    1.405588  -13.944047  -21.000871
 O    0.757501  -13.414340  -18.934223
 O   -0.531517  -15.733012  -18.646328
 H    0.337697  -16.658890  -21.662320
 H   -1.196349  -18.491560  -20.271379
 H   -1.654501  -17.279306  -17.862403
 H    0.239952  -13.831132  -18.235189
