22 
5wio_ligand_xtb.xyz
 O   39.192605   14.210610    3.383233
 C   38.186737   14.010614    4.229575
 O   38.275577   14.155352    5.417961
 C   36.920413   13.579939    3.542865
 C   35.765111   13.332559    4.262663
 N   37.008731   13.466950    2.217772
 C   35.924870   13.092913    1.562644
 C   34.718033   12.813254    2.179389
 C   34.618477   12.933605    3.569631
 N   33.434892   12.667603    4.234111
 C   33.315532   12.329715    5.559891
 C   31.999348   12.137564    5.844705
 C   31.271763   12.381308    4.654016
 C   32.175695   12.693150    3.686425
 H   38.869075   14.025848    2.477185
 H   35.780727   13.471368    5.330916
 H   36.032059   13.007000    0.489813
 H   33.876825   12.490695    1.588594
 H   34.174038   12.213541    6.189289
 H   31.588924   11.855454    6.793506
 H   30.207727   12.329567    4.537055
 H   32.011340   12.971493    2.665259
