22 
5wio_ligand_dft.xyz
 O    4.120758   -0.288361    0.053565
 C    2.941688   -0.906032    0.098223
 O    2.818759   -2.100358    0.200343
 C    1.762310    0.034560    0.006105
 C    0.472573   -0.468161    0.052183
 N    2.065137    1.331454   -0.103838
 C    1.046322    2.186989   -0.183509
 C   -0.285193    1.794196   -0.165287
 C   -0.587429    0.435191   -0.040099
 N   -1.914253   -0.008331   -0.009671
 C   -2.358892   -1.250276   -0.428339
 C   -3.711512   -1.303707   -0.248197
 C   -4.118863   -0.056174    0.311720
 C   -3.002040    0.719110    0.441138
 H    3.931843    0.668754   -0.030192
 H    0.325095   -1.533704    0.179945
 H    1.304160    3.238052   -0.279597
 H   -1.069519    2.533873   -0.274107
 H   -1.676399   -1.965121   -0.861992
 H   -4.347100   -2.141226   -0.497649
 H   -5.120965    0.230146    0.597390
 H   -2.873237    1.702929    0.865880
