21 
5wip_ligand_aiqm1.xyz
 C  -37.852356   -8.941441   11.138128
 C  -39.816136   -8.728112   10.218544
 C  -38.917149   -8.556357    9.212983
 C  -37.630030   -8.695452    9.813436
 C  -36.947475   -9.178278   12.255949
 C  -36.654571   -9.746334   14.453990
 C  -35.271362   -9.661018   14.356991
 C  -34.713195   -9.295610   13.134691
 C  -35.563866   -9.054862   12.064138
 C  -33.214601   -9.204417   13.038466
 N  -37.487878   -9.507978   13.436939
 O  -39.184383   -8.964329   11.394004
 O  -32.478875   -9.756200   13.806422
 O  -32.717356   -8.447170   12.035101
 H  -40.889991   -8.713199   10.258123
 H  -39.145599   -8.358834    8.179995
 H  -36.673995   -8.633203    9.323437
 H  -37.119091  -10.022990   15.392877
 H  -34.628550   -9.875807   15.197771
 H  -35.181287   -8.810859   11.082531
 H  -33.433753   -7.994052   11.580984
