21 
5wip_ligand_ani-2x.xyz
 C  -37.843133   -8.948816   11.115923
 C  -39.819553   -8.792826   10.213770
 C  -38.939684   -8.540289    9.213828
 C  -37.640759   -8.641599    9.801278
 C  -36.931572   -9.183485   12.241842
 C  -36.660288   -9.681226   14.454270
 C  -35.270444   -9.636344   14.361601
 C  -34.705752   -9.316910   13.133881
 C  -35.550859   -9.102344   12.050600
 C  -33.203522   -9.265017   13.024145
 N  -37.479205   -9.458972   13.430717
 O  -39.172080   -9.042085   11.372616
 O  -32.473481   -9.920868   13.715781
 O  -32.707804   -8.424429   12.093279
 H  -40.897797   -8.832356   10.264206
 H  -39.183908   -8.310397    8.185788
 H  -36.695260   -8.499302    9.295409
 H  -37.139185   -9.912209   15.402568
 H  -34.635700   -9.841823   15.216619
 H  -35.153044   -8.918715   11.055092
 H  -33.418470   -7.876488   11.732286
