55 
5wmg_ligand_xtb.xyz
 C   -2.475334   -4.081110    0.236806
 C   -2.010413    2.568526    0.872205
 C   -1.140901    2.332570   -1.486592
 C    0.043568   -2.249408    0.575116
 C    1.222633    1.752978   -0.916957
 C   -1.514649   -5.084168   -0.283067
 O    8.354442    1.369857    0.218604
 O    8.032326   -0.680659    1.031341
 N   -3.511629    2.359578   -0.963894
 C   -4.524853    2.439289   -0.119340
 C   -4.366407    2.578593    1.250055
 C   -3.075485    2.644616    1.752341
 C   -2.278267    2.420435   -0.486661
 N   -0.105311    1.460219   -0.979056
 N    1.128453   -1.527757    0.422763
 O   -3.705868   -4.498868    0.575499
 N   -4.438546   -3.444123    1.007766
 C   -4.192596   -1.045038    1.340947
 C   -3.689292   -2.378586    0.926589
 C   -2.391693   -2.722932    0.433093
 C   -1.254343   -1.840465    0.215093
 C   -1.426127   -0.577291   -0.336296
 C   -0.287674    0.196228   -0.493493
 C    0.982618   -0.314046   -0.106403
 C    1.948378    0.707443   -0.391794
 C    5.313601   -0.568463    0.610720
 C    3.955226   -0.495235    0.392005
 C    3.380447    0.649507   -0.169568
 C    4.214538    1.721383   -0.506356
 C    5.571653    1.649877   -0.288296
 C    6.137653    0.504601    0.272878
 C    7.593288    0.470990    0.488768
 C   -1.612354    1.876296   -2.866802
 H   -0.992131    2.617456    1.227931
 H   -0.697724    3.334001   -1.577058
 H    0.193244   -3.218913    1.030310
 H    1.566634    2.711566   -1.256527
 H   -0.758370   -4.595965   -0.891914
 H   -2.047273   -5.824463   -0.875948
 H   -1.022764   -5.602444    0.540104
 H    8.993897   -0.634821    1.145251
 H   -5.507218    2.383640   -0.569978
 H   -5.223448    2.631710    1.902120
 H   -2.901323    2.754916    2.812712
 H   -3.398618   -0.471500    1.815725
 H   -5.022555   -1.172048    2.030259
 H   -4.550040   -0.487846    0.475049
 H   -2.401172   -0.229785   -0.640513
 H    5.749872   -1.454787    1.044342
 H    3.311507   -1.320846    0.650703
 H    3.796516    2.615448   -0.942630
 H    6.221584    2.472787   -0.545620
 H   -2.026344    0.873823   -2.813441
 H   -2.384781    2.547886   -3.226681
 H   -0.776673    1.876049   -3.562707
