55 
5wmg_ligand_aiqm1.xyz
 C   -2.570131   -4.140550    0.056713
 C   -1.887473    3.017267    0.657582
 C   -1.157917    2.205275   -1.609519
 C    0.001500   -2.346628    0.586213
 C    1.213671    1.653312   -0.936215
 C   -1.696842   -5.107928   -0.655569
 O    8.294338    1.612829    0.458623
 O    8.086404   -0.538025    1.058029
 N   -3.500929    2.128686   -0.880225
 C   -4.447023    2.360755    0.045642
 C   -4.189354    2.917980    1.292309
 C   -2.875338    3.253577    1.604750
 C   -2.243198    2.455160   -0.574435
 N   -0.122161    1.346824   -1.031204
 N    1.106169   -1.626180    0.454207
 O   -3.782435   -4.589763    0.432564
 N   -4.478586   -3.566293    1.061268
 C   -4.130649   -1.247965    1.676592
 C   -3.686443   -2.523341    1.046516
 C   -2.440561   -2.832770    0.414627
 C   -1.295260   -1.933089    0.205093
 C   -1.457323   -0.680693   -0.362130
 C   -0.304097    0.086416   -0.517771
 C    0.952537   -0.409153   -0.094879
 C    1.927267    0.621627   -0.368086
 C    5.377622   -0.557541    0.596264
 C    4.010546   -0.553204    0.355426
 C    3.369994    0.607639   -0.105530
 C    4.139797    1.764913   -0.312669
 C    5.505738    1.761094   -0.072569
 C    6.131811    0.598620    0.381279
 C    7.592407    0.644528    0.622478
 C   -1.667073    1.655090   -2.934731
 H   -0.848904    3.243408    0.861551
 H   -0.664637    3.163130   -1.790189
 H    0.120752   -3.327488    1.033634
 H    1.559935    2.605226   -1.303665
 H   -0.757440   -4.630662   -0.928863
 H   -2.190182   -5.458973   -1.562582
 H   -1.485897   -5.970982   -0.023068
 H    9.033126   -0.400356    1.182489
 H   -5.455533    2.073494   -0.228466
 H   -4.996292    3.076252    1.993765
 H   -2.623658    3.683145    2.564094
 H   -3.426238   -0.941822    2.451444
 H   -5.113841   -1.396945    2.120023
 H   -4.188362   -0.436243    0.946129
 H   -2.429987   -0.315709   -0.670238
 H    5.871019   -1.451984    0.952281
 H    3.424669   -1.442571    0.526772
 H    3.672255    2.678743   -0.656543
 H    6.104092    2.649007   -0.229659
 H   -2.128307    0.678144   -2.803385
 H   -2.415840    2.327522   -3.350639
 H   -0.837836    1.557898   -3.636029
