38 
5wpb_ligand_aiqm1.xyz
 C   -1.577376    4.669094    8.628574
 C    0.352404    2.794014    8.302870
 N    0.012822    3.475955    7.243326
 C   -2.950990    6.380330    7.622520
 C   -2.581141    5.656747    8.731529
 O    4.522880    3.617374    8.951722
 C    3.498072    3.013636    9.123774
 O    2.976502    2.930564   10.363297
 C    2.816656    2.301734    7.967461
 C    1.411503    1.729389    8.157525
 C   -0.961990    4.429686    7.382789
 C   -1.354433    5.184885    6.255421
 C   -2.332407    6.144106    6.373073
 N   -1.207478    3.959009    9.742666
 C   -0.282582    3.068259    9.571193
 O    0.168692    2.341395   10.616635
 C   -0.509057    2.576290   11.871468
 C    0.096104    1.628057   12.857347
 N   -0.283643    0.347216   12.751026
 C    0.266282   -0.530943   13.597717
 C    1.206560   -0.188922   14.564184
 C    1.593040    1.141959   14.666189
 C    1.027261    2.068895   13.795507
 H   -3.720059    7.137580    7.705206
 H   -3.039030    5.821857    9.697976
 H    2.119938    2.477427   10.397418
 H    3.495729    1.491644    7.692290
 H    2.825467    3.004431    7.133648
 H    1.168570    1.164834    7.257390
 H    1.386334    1.031961    8.993044
 H   -0.861894    4.981685    5.313009
 H   -2.630473    6.721555    5.508424
 H   -1.573227    2.387078   11.736182
 H   -0.358923    3.615623   12.162695
 H   -0.058553   -1.558402   13.488333
 H    1.621724   -0.949188   15.210730
 H    2.325949    1.454577   15.397196
 H    1.311165    3.112708   13.830743
