38 
5wpb_ligand_dft.xyz
 C   -2.628252   -1.242022    0.213869
 C   -1.227281    0.763214   -0.954585
 N   -2.524732    0.885833   -0.935807
 C   -4.782578   -2.130332    0.827000
 C   -3.414050   -2.255063    0.804312
 O    0.357971    3.964154    1.409705
 C    0.443482    3.073325    0.605652
 O    1.260482    2.030487    0.840136
 C   -0.320278    3.126174   -0.715900
 C   -0.412151    1.865085   -1.587759
 C   -3.259546   -0.108588   -0.350844
 C   -4.667591   -0.002164   -0.315421
 C   -5.414462   -0.998151    0.265152
 N   -1.265429   -1.361847    0.196417
 C   -0.607661   -0.395080   -0.360846
 O    0.742334   -0.419754   -0.405781
 C    1.393909   -1.532562    0.237814
 C    2.878299   -1.301658    0.140398
 N    3.540748   -2.085774   -0.715427
 C    4.857192   -1.900882   -0.829974
 C    5.565558   -0.937626   -0.118348
 C    4.867076   -0.126023    0.768658
 C    3.497663   -0.314045    0.907866
 H   -5.387832   -2.908508    1.281834
 H   -2.908758   -3.115172    1.230999
 H    1.206970    1.335777    0.161486
 H    0.149942    3.928734   -1.296095
 H   -1.327748    3.474421   -0.471943
 H   -0.918814    2.147403   -2.515132
 H    0.580184    1.499741   -1.869044
 H   -5.124442    0.878405   -0.754933
 H   -6.496613   -0.919120    0.294901
 H    1.120766   -2.455512   -0.276119
 H    1.049777   -1.583833    1.275271
 H    5.369302   -2.557316   -1.529887
 H    6.636284   -0.831427   -0.257197
 H    5.378352    0.637682    1.346431
 H    2.916256    0.300535    1.588391
