67 
5wqa_ligand_aiqm1.xyz
 O  -25.401301    5.529665   22.809657
 C  -25.505364    5.280139   23.993290
 C  -26.340549    6.072580   24.921782
 C  -26.436468    5.722546   26.288676
 C  -25.805317    4.539003   26.773389
 C  -25.361150    3.480737   27.175512
 C  -24.848558    2.244546   27.671647
 C  -25.340387    1.706533   28.869434
 C  -24.852577    0.500791   29.353854
 C  -23.865202   -0.179101   28.642279
 O  -23.419889   -1.358650   29.162486
 C  -23.368367    0.344696   27.450724
 C  -23.859403    1.551241   26.968491
 C  -27.217815    6.512900   27.129778
 C  -27.941480    7.598350   26.590665
 C  -27.858095    7.937073   25.245217
 C  -27.038024    7.173293   24.421089
 C  -27.410960    6.423194   28.658260
 C  -28.480503    7.512281   28.862853
 C  -29.130082    7.857089   30.033129
 C  -30.040988    8.918018   29.997128
 O  -30.660960    9.242358   31.169237
 C  -30.293415    9.612257   28.816484
 C  -29.644075    9.254419   27.633713
 C  -28.740344    8.204367   27.659608
 C  -27.966426    5.081024   29.122996
 C  -28.676084    4.256464   28.249734
 C  -29.214173    3.037090   28.661875
 C  -29.058482    2.629219   29.986254
 O  -29.517730    1.454047   30.496320
 C  -30.249338    0.613724   29.621126
 C  -28.379808    3.458101   30.883380
 C  -27.849904    4.664488   30.455490
 C  -26.089045    6.838900   29.319156
 C  -25.132064    5.900347   29.695614
 C  -23.905547    6.271101   30.243897
 C  -23.611938    7.621492   30.418862
 O  -22.451265    8.102691   30.941251
 C  -21.476137    7.146622   31.315592
 C  -24.555373    8.580689   30.043230
 C  -25.771609    8.195115   29.500949
 H  -24.967359    4.433382   24.444935
 H  -26.114500    2.239890   29.415179
 H  -25.223484    0.074912   30.275595
 H  -22.750936   -1.724400   28.580014
 H  -22.601605   -0.186023   26.898804
 H  -23.476716    1.961576   26.044649
 H  -28.412444    8.773885   24.842956
 H  -26.926630    7.400447   23.370268
 H  -28.952342    7.341090   30.967335
 H  -31.262075    9.972525   31.008939
 H  -31.000964   10.432758   28.814580
 H  -29.854080    9.798504   26.722280
 H  -28.811215    4.557885   27.221417
 H  -29.745981    2.424103   27.949368
 H  -31.144684    1.115012   29.246709
 H  -29.637106    0.288270   28.776899
 H  -30.538364   -0.250384   30.211950
 H  -28.279307    3.138029   31.911451
 H  -27.326573    5.286524   31.167869
 H  -25.331479    4.850314   29.555058
 H  -23.197876    5.502400   30.515627
 H  -21.852282    6.482173   32.097476
 H  -21.155684    6.550646   30.457860
 H  -20.632371    7.713724   31.698025
 H  -24.312354    9.625352   30.182121
 H  -26.475095    8.964465   29.214932
