67 
5wqa_ligand_ani-2x.xyz
 O  -25.394476    5.499320   22.799329
 C  -25.497448    5.281325   23.987070
 C  -26.376472    6.068278   24.893458
 C  -26.465454    5.752659   26.261498
 C  -25.835369    4.594319   26.791118
 C  -25.332468    3.571602   27.198485
 C  -24.765802    2.338533   27.665109
 C  -25.539015    1.430058   28.400203
 C  -25.000156    0.234801   28.848429
 C  -23.668912   -0.072312   28.562453
 O  -23.192546   -1.258131   29.027918
 C  -22.886097    0.816214   27.827901
 C  -23.435359    2.010562   27.382576
 C  -27.278005    6.561642   27.079098
 C  -28.023739    7.606757   26.513377
 C  -27.954847    7.884202   25.144928
 C  -27.123857    7.116066   24.353265
 C  -27.439282    6.461173   28.603807
 C  -28.513407    7.554755   28.778235
 C  -29.174519    7.879897   29.952657
 C  -30.070522    8.942448   29.943455
 O  -30.686957    9.258364   31.114326
 C  -30.324200    9.649020   28.756372
 C  -29.699329    9.290188   27.574732
 C  -28.798102    8.224454   27.577524
 C  -27.998181    5.106678   29.102383
 C  -28.719768    4.247457   28.268959
 C  -29.269794    3.059652   28.733183
 C  -29.152971    2.717884   30.078451
 O  -29.653715    1.583599   30.634813
 C  -30.343060    0.694253   29.784183
 C  -28.475825    3.580688   30.943944
 C  -27.914446    4.746653   30.457751
 C  -26.094163    6.800431   29.305725
 C  -25.163283    5.811258   29.632919
 C  -23.931918    6.113323   30.204434
 C  -23.600121    7.436740   30.476637
 O  -22.431279    7.839989   31.038972
 C  -21.491973    6.840207   31.369553
 C  -24.512200    8.444629   30.158180
 C  -25.724644    8.126661   29.579203
 H  -24.927648    4.468097   24.473945
 H  -26.576932    1.681114   28.619857
 H  -25.584983   -0.479447   29.420308
 H  -22.268121   -1.353419   28.766524
 H  -21.848308    0.576235   27.601263
 H  -22.825697    2.697775   26.803373
 H  -28.534378    8.692613   24.705978
 H  -27.030013    7.305581   23.288055
 H  -28.994034    7.306401   30.855487
 H  -31.273481   10.010615   30.967346
 H  -31.028457   10.480007   28.765180
 H  -29.917579    9.838759   26.660959
 H  -28.842846    4.514913   27.220984
 H  -29.799617    2.417148   28.037499
 H  -31.234109    1.164773   29.347528
 H  -29.695476    0.333788   28.973705
 H  -30.647324   -0.147983   30.407275
 H  -28.395558    3.301570   31.989429
 H  -27.359979    5.389138   31.141235
 H  -25.401917    4.768631   29.464316
 H  -23.246849    5.307031   30.440908
 H  -21.899590    6.134230   32.105297
 H  -21.168338    6.283672   30.479936
 H  -20.636503    7.360731   31.802264
 H  -24.239044    9.473682   30.371683
 H  -26.419243    8.926546   29.329452
