32 
5wyz_ligand_ani-2x.xyz
 O   57.674059  -26.731730   30.870024
 C   58.539406  -27.415056   31.672409
 C   59.177608  -28.531090   31.109811
 C   58.894724  -28.916327   29.681783
 C   60.069295  -29.234568   31.908768
 C   58.791984  -27.032240   32.986851
 C   59.674201  -27.769519   33.765682
 C   60.316899  -28.894294   33.243353
 C   61.297218  -29.680246   34.034363
 C   62.572063  -29.858903   33.550875
 C   63.538780  -30.519185   34.339280
 N   63.304781  -31.014153   35.530661
 C   60.983372  -30.257800   35.307522
 C   59.685439  -30.262127   35.897272
 C   59.459492  -30.807172   37.130302
 C   60.530329  -31.397475   37.846671
 O   60.231174  -31.910806   39.071264
 C   61.785376  -31.439294   37.300396
 C   62.036442  -30.891669   36.017889
 H   57.302708  -25.989267   31.363124
 H   57.830416  -29.128325   29.533912
 H   59.154265  -28.103304   28.995223
 H   59.465653  -29.804777   29.394607
 H   60.585166  -30.097964   31.489686
 H   58.292744  -26.160232   33.405895
 H   59.868742  -27.474772   34.794599
 H   62.851843  -29.466734   32.576552
 H   64.551312  -30.637176   33.954161
 H   58.858690  -29.823928   35.343376
 H   58.474505  -30.802768   37.585176
 H   61.032825  -32.284538   39.459901
 H   62.625287  -31.899359   37.814713
