45 
5wzt_ligand_ani-2x.xyz
 O  -19.034622  -13.519231  -12.437177
 C  -18.472738  -14.348139  -11.770183
 O  -19.108804  -15.311213  -11.078729
 C  -16.973191  -14.464746  -11.537115
 O  -16.207786  -13.724034  -12.454751
 C  -15.974022  -12.402792  -12.226507
 C  -16.620804  -11.619133  -11.286059
 C  -16.219938  -10.285488  -11.080967
 C  -15.183660   -9.710321  -11.790983
 C  -14.564481  -10.509147  -12.755034
 C  -14.975761  -11.817648  -13.027290
 C  -14.131978  -12.319987  -14.083879
 C  -14.259578  -13.583536  -14.820298
 O  -13.323338  -14.276137  -15.181512
 C  -15.681324  -14.027215  -15.221533
 O  -16.589685  -13.221531  -15.278181
 N  -15.751023  -15.343885  -15.504737
 C  -13.201039  -11.338928  -14.346289
 C  -12.036279  -11.344797  -15.294856
 N  -13.494950  -10.234404  -13.581067
 C  -12.762918   -8.984866  -13.542571
 C  -12.041230   -8.781050  -12.228500
 C  -11.849724   -7.495653  -11.741360
 C  -11.175219   -7.312631  -10.547767
Br  -10.917289   -5.541146   -9.891038
 C  -10.689601   -8.385130   -9.820461
 C  -10.885878   -9.663870  -10.311626
 C  -11.553320   -9.863352  -11.507319
 H  -20.058054  -15.192382  -11.248117
 H  -16.686833  -15.510870  -11.666554
 H  -16.751460  -14.187305  -10.497126
 H  -17.446496  -12.008549  -10.698209
 H  -16.738024   -9.700539  -10.326138
 H  -14.860759   -8.689349  -11.604134
 H  -16.620343  -15.714016  -15.855970
 H  -14.895369  -15.868024  -15.612623
 H  -12.172097  -10.617057  -16.106864
 H  -11.096166  -11.101436  -14.781863
 H  -11.929209  -12.335195  -15.742755
 H  -12.029294   -8.980964  -14.358641
 H  -13.456284   -8.152093  -13.719329
 H  -12.223494   -6.642502  -12.287868
 H  -10.170429   -8.222169   -8.889026
 H  -10.513236  -10.510246   -9.755415
 H  -11.702274  -10.866293  -11.877578
