45 
5wzt_ligand_aiqm1.xyz
 O  -18.952116  -13.316526  -12.679676
 C  -18.543515  -14.133999  -11.906900
 O  -19.336810  -14.904351  -11.125412
 C  -17.092566  -14.487361  -11.622048
 O  -16.177127  -13.818475  -12.447849
 C  -15.915081  -12.500014  -12.187715
 C  -16.511164  -11.759270  -11.176956
 C  -16.115420  -10.425004  -10.945852
 C  -15.119862   -9.813488  -11.682626
 C  -14.540454  -10.580633  -12.701842
 C  -14.931568  -11.896181  -12.988216
 C  -14.086741  -12.355763  -14.064902
 C  -14.169407  -13.618658  -14.795859
 O  -13.196799  -14.243175  -15.189062
 C  -15.562862  -14.122569  -15.188919
 O  -16.462944  -13.347623  -15.430016
 N  -15.636644  -15.480599  -15.264888
 C  -13.210622  -11.331195  -14.362217
 C  -12.135080  -11.256184  -15.397338
 N  -13.514758  -10.247762  -13.561425
 C  -12.831059   -8.969631  -13.525548
 C  -12.075480   -8.763592  -12.234086
 C  -11.938423   -7.484622  -11.712647
 C  -11.232414   -7.299231  -10.537697
Br  -11.051072   -5.536342   -9.833870
 C  -10.661515   -8.363550   -9.862278
 C  -10.803353   -9.636123  -10.387218
 C  -11.501250   -9.837268  -11.564969
 H  -20.248264  -14.672618  -11.341840
 H  -16.961007  -15.549037  -11.830216
 H  -16.888777  -14.322932  -10.558756
 H  -17.298826  -12.180041  -10.570401
 H  -16.606970   -9.873535  -10.155382
 H  -14.802043   -8.801117  -11.480920
 H  -16.433261  -15.874018  -15.734004
 H  -14.757806  -15.967662  -15.321621
 H  -12.349470  -10.475041  -16.130210
 H  -11.169745  -11.031492  -14.939791
 H  -12.053808  -12.209095  -15.913651
 H  -12.129426   -8.933268  -14.362776
 H  -13.555411   -8.161163  -13.662315
 H  -12.378832   -6.637889  -12.218058
 H  -10.119014   -8.199277   -8.944479
 H  -10.363969  -10.476157   -9.871653
 H  -11.607266  -10.835469  -11.961896
