65 
5x33_ligand_xtb.xyz
 C  116.270327  176.093772  279.976150
 C  118.214991  175.574268  282.338603
 C  118.376899  179.804763  282.496410
 C  117.125413  180.373135  282.734630
 C  120.052684  174.037432  282.433783
 C  115.895920  182.136122  283.772091
 C  114.933835  181.338608  284.621253
 C  112.675517  180.890776  285.338670
 C  111.202234  181.198764  285.284011
 C  114.503829  179.631427  286.253429
 O  117.121999  181.492350  283.518917
 O  120.790778  173.154351  283.163556
 O  110.480655  179.985937  285.336106
 N  104.152416  180.797843  284.864775
 N  104.346866  178.740070  285.978358
 C  117.576895  176.843124  280.274695
 C  117.373116  178.068236  281.151446
 C  118.489174  175.870343  281.004827
 C  118.165342  177.336261  278.944759
 C  118.492554  178.674984  281.718878
 C  116.136476  178.643543  281.391010
 C  119.557834  175.225247  280.401911
 C  116.003821  179.780545  282.173733
 C  118.979933  174.674655  283.049353
 C  120.334541  174.319892  281.105617
 C  113.571696  181.599417  284.553501
 C  115.396526  180.351678  285.479637
 C  113.149272  179.900760  286.189886
 C  109.123168  180.027993  285.353705
 C  108.478498  178.789827  285.430741
 C  108.356061  181.186915  285.307505
 C  106.329973  179.875760  285.391565
 C  107.105915  178.717889  285.454104
 C  106.973993  181.104379  285.325149
 C  104.859971  179.755684  285.418651
 H  115.755162  175.828890  280.895959
 H  115.609375  176.694559  279.355753
 H  116.498336  175.175169  279.438553
 H  117.389884  176.067937  282.830895
 H  119.245144  180.270248  282.936065
 H  116.177267  183.050729  284.308051
 H  115.412463  182.430739  282.829360
 H  110.964939  181.747914  284.361862
 H  110.933877  181.834080  286.143795
 H  114.868714  178.858664  286.913273
 H  121.495973  172.790109  282.615360
 H  103.160844  180.669465  284.738921
 H  104.603933  181.397991  284.196385
 H  103.329718  178.719291  285.963830
 H  117.518991  178.108426  278.531582
 H  119.153508  177.764954  279.091492
 H  118.229809  176.526264  278.221906
 H  119.469874  178.244891  281.554912
 H  115.240085  178.212100  280.974708
 H  119.807318  175.418020  279.370673
 H  115.016902  180.181124  282.344812
 H  118.765331  174.450805  284.082155
 H  121.166626  173.829360  280.616077
 H  113.208931  182.365289  283.880951
 H  116.455154  180.146103  285.531624
 H  112.448341  179.340887  286.788887
 H  109.087173  177.900383  285.472911
 H  108.819241  182.160569  285.262631
 H  106.600118  177.768695  285.525067
 H  106.402443  182.021396  285.316434
