50 
5xaf_ligand_ani-2x.xyz
 N    0.072381   -0.211275    1.602881
 C    1.400643   -0.775882    1.335239
 C    1.718326   -0.618336    2.849992
 C    0.262849   -0.159535    2.971278
 O   -0.478091    0.127239    3.878056
 C   -1.106052   -0.313120    0.840769
 C   -0.991457   -0.534055   -0.531557
 C   -2.138865   -0.614547   -1.308211
 C   -3.398737   -0.465367   -0.727244
 C   -3.499891   -0.272491    0.663575
 C   -2.354463   -0.175571    1.451019
 C    2.293500   -0.007854    0.394707
 C    1.951795    1.248033   -0.088238
 C    2.815064    1.940968   -0.938457
 C    4.026309    1.373495   -1.300317
 C    4.387368    0.104613   -0.810550
 C    3.521843   -0.571269    0.031167
 O    5.574970   -0.447621   -1.165284
 O    4.962817    1.938407   -2.123003
 C    4.674219    3.215449   -2.656445
 O   -4.535930   -0.502350   -1.488034
 C   -4.920224   -1.820928   -1.851697
 O   -4.765164   -0.205960    1.143295
 C   -4.921667    0.029789    2.523970
 O   -2.021558   -0.895649   -2.643309
 C   -2.415553    0.166407   -3.506678
 C    2.146266   -1.843513    3.643774
 H    1.343534   -1.829187    1.019052
 H    2.402643    0.218230    3.029850
 H   -0.019001   -0.628339   -1.000680
 H   -2.412272   -0.002208    2.519146
 H    0.997326    1.682839    0.191688
 H    2.530300    2.918928   -1.311022
 H    3.815080   -1.550058    0.400835
 H    6.013077    0.189137   -1.751738
 H    4.548991    3.959269   -1.859482
 H    5.527859    3.489857   -3.277148
 H    3.767319    3.191816   -3.273753
 H   -4.117307   -2.319777   -2.407649
 H   -5.171399   -2.404661   -0.957497
 H   -5.806026   -1.727099   -2.483619
 H   -4.465056    0.984212    2.818994
 H   -4.474083   -0.778259    3.118096
 H   -5.996034    0.066196    2.707955
 H   -3.462765    0.438386   -3.343893
 H   -2.281021   -0.202963   -4.525554
 H   -1.777903    1.046355   -3.352536
 H    3.173059   -2.122410    3.386922
 H    2.106662   -1.626977    4.715094
 H    1.496517   -2.702463    3.446046
