51 
5xag_ligand_ani-2x.xyz
 C    1.246153   -4.091191   -1.192813
 O    2.250875   -3.862727   -2.166856
 C    1.354944   -2.965622   -0.179469
 C    0.188003   -2.763411    0.780587
 O   -0.385018   -3.441745    1.595362
 N   -0.023308   -1.463488    0.348047
 C   -1.178799   -0.660975    0.388238
 C   -1.191747    0.523933   -0.347513
 C   -2.314046    1.340423   -0.308895
 O   -2.346232    2.466422   -1.087553
 C   -2.360433    3.689210   -0.357531
 C   -3.417267    0.989787    0.470286
 O   -4.513532    1.805546    0.549945
 C   -5.359112    1.714549   -0.588172
 C   -3.400585   -0.222599    1.185424
 O   -4.541445   -0.508133    1.858292
 C   -4.559894   -1.689878    2.626057
 C   -2.275492   -1.044161    1.162739
 C    1.006789   -1.536487   -0.692522
 C    2.128694   -0.533313   -0.632115
 C    3.137864   -0.624542   -1.596693
 C    4.189023    0.274557   -1.595177
 O    5.163174    0.195242   -2.534555
 C    4.243869    1.276274   -0.608321
 O    5.329823    2.102227   -0.716670
 C    5.460316    3.134510    0.240531
 C    3.256744    1.357936    0.359992
 C    2.199711    0.446074    0.346736
 H    0.243835   -4.090768   -1.645062
 H    1.384929   -5.054542   -0.682752
 H    2.177635   -4.544318   -2.845638
 H    2.324319   -3.010375    0.325813
 H   -0.333794    0.821508   -0.938984
 H   -2.400569    4.487870   -1.101283
 H   -3.234269    3.746327    0.298381
 H   -1.444866    3.794304    0.238528
 H   -6.170077    2.429888   -0.435213
 H   -5.776714    0.703660   -0.672439
 H   -4.807910    1.966182   -1.502223
 H   -5.541458   -1.731647    3.099577
 H   -3.778739   -1.675076    3.398115
 H   -4.418671   -2.576494    1.993405
 H   -2.237210   -1.970373    1.723529
 H    0.575338   -1.554970   -1.705908
 H    3.113015   -1.407289   -2.347872
 H    5.789377    0.912303   -2.348133
 H    6.373021    3.675186   -0.012318
 H    5.548007    2.725997    1.255178
 H    4.606408    3.822521    0.201057
 H    3.295955    2.122702    1.127887
 H    1.423468    0.499085    1.103970
