51 
5xag_ligand_xtb.xyz
 C    1.367813   -4.346824   -1.259043
 O    2.519117   -4.323664   -2.072845
 C    1.398093   -3.133345   -0.345287
 C    0.133178   -2.912001    0.481799
 O   -0.457825   -3.540020    1.320937
 N   -0.104416   -1.714256   -0.116473
 C   -1.075377   -0.735728    0.036641
 C   -1.022802    0.421672   -0.715483
 C   -2.000522    1.409452   -0.574123
 O   -1.793957    2.484309   -1.380022
 C   -2.663240    3.595296   -1.370594
 C   -3.042903    1.224808    0.339610
 O   -4.009831    2.199845    0.529063
 C   -5.329457    1.826849    0.185376
 C   -3.069367    0.046706    1.116823
 O   -4.094046   -0.049403    2.011046
 C   -4.140800   -1.172459    2.858829
 C   -2.100240   -0.927647    0.960609
 C    1.070047   -1.758999   -0.986813
 C    2.077172   -0.672685   -0.765210
 C    2.847720   -0.216667   -1.827973
 C    3.795446    0.771463   -1.635233
 O    4.541166    1.207574   -2.681409
 C    3.977165    1.325049   -0.355437
 O    4.941376    2.304765   -0.286615
 C    5.175214    2.917047    0.956829
 C    3.209464    0.867751    0.700166
 C    2.268493   -0.129381    0.494852
 H    0.455786   -4.324576   -1.874341
 H    1.342207   -5.252726   -0.637141
 H    2.528644   -5.107269   -2.631731
 H    2.320390   -3.130978    0.234890
 H   -0.229128    0.596790   -1.422086
 H   -2.197449    4.321783   -2.037046
 H   -3.653107    3.338203   -1.756398
 H   -2.765047    4.021574   -0.371470
 H   -5.933993    2.721610    0.325893
 H   -5.704424    1.027836    0.827563
 H   -5.388673    1.505794   -0.861615
 H   -5.006863   -1.016809    3.500673
 H   -3.240466   -1.247331    3.475127
 H   -4.269944   -2.099642    2.292106
 H   -2.108540   -1.833269    1.541053
 H    0.803341   -1.828719   -2.045005
 H    2.728116   -0.628032   -2.817270
 H    5.138463    1.894606   -2.354994
 H    5.957986    3.653300    0.780570
 H    5.520185    2.192029    1.700467
 H    4.278289    3.422253    1.327924
 H    3.332271    1.277890    1.689648
 H    1.675378   -0.473723    1.328163
