51 
5xag_ligand_dft.xyz
 C   -1.667869    3.985500   -0.977344
 O   -2.899972    3.734405   -1.624827
 C   -1.456215    2.869134    0.021647
 C   -0.047697    2.773255    0.614830
 O    0.667002    3.496054    1.269116
 N    0.143096    1.521231    0.074037
 C    1.257142    0.677019   -0.009167
 C    1.195646   -0.465301   -0.796418
 C    2.309812   -1.303976   -0.874478
 O    2.202622   -2.378723   -1.702677
 C    2.643911   -3.641968   -1.225169
 C    3.472901   -1.003651   -0.165492
 O    4.576450   -1.813276   -0.236303
 C    5.471457   -1.442012   -1.272777
 C    3.512428    0.155489    0.632472
 O    4.688307    0.375426    1.266090
 C    4.782508    1.511579    2.098206
 C    2.409428    0.997196    0.719665
 C   -1.169845    1.462289   -0.581780
 C   -2.095678    0.351840   -0.158704
 C   -3.312711    0.218142   -0.837377
 C   -4.215064   -0.760068   -0.461844
 O   -5.394225   -0.889790   -1.116549
 C   -3.905536   -1.625143    0.605003
 O   -4.880839   -2.547763    0.862656
 C   -4.645831   -3.481730    1.892294
 C   -2.704428   -1.491414    1.281641
 C   -1.800032   -0.496076    0.899345
 H   -0.833002    3.998942   -1.696246
 H   -1.670748    4.949954   -0.449934
 H   -3.044751    4.425162   -2.281040
 H   -2.253532    2.860389    0.769425
 H    0.300369   -0.737827   -1.343025
 H    2.080180   -4.387330   -1.790903
 H    3.714813   -3.786531   -1.385985
 H    2.429825   -3.755397   -0.157000
 H    6.297660   -2.155419   -1.239478
 H    5.858777   -0.429205   -1.112192
 H    4.979959   -1.496204   -2.252725
 H    5.786722    1.487135    2.522806
 H    4.044049    1.476182    2.908462
 H    4.647761    2.440910    1.530980
 H    2.417191    1.899618    1.315727
 H   -1.079335    1.492554   -1.674614
 H   -3.572618    0.893087   -1.647717
 H   -5.870116   -1.624686   -0.702868
 H   -5.522539   -4.129568    1.923090
 H   -4.527247   -2.982639    2.862105
 H   -3.753407   -4.084710    1.682941
 H   -2.453846   -2.153443    2.103191
 H   -0.858552   -0.400875    1.429384
