30 
5xg5_ligand_xtb.xyz
 O   -1.239133    1.215463   -0.548903
 C    0.153030    1.044187   -0.622415
 O    0.567856    0.717308   -1.915842
 C    0.626596   -0.068645    0.333429
 N    2.054860   -0.246008    0.267213
 C   -0.083305   -1.378614   -0.032201
 O    0.313094   -2.437157    0.791240
 C   -1.599611   -1.131010    0.064675
 O   -1.890527   -0.906199    1.422641
 C   -1.983321    0.041727   -0.853648
 C   -3.459652    0.435080   -0.706940
 O   -3.729890    0.945937    0.575431
 C    2.926125    0.706812    0.667518
 O    2.565549    1.777779    1.109188
 C    4.376673    0.303138    0.511763
 H    0.570929    2.004666   -0.292819
 H    0.397283    1.464795   -2.500366
 H    0.343074    0.231963    1.350939
 H    2.383992   -1.121728   -0.105758
 H    0.187561   -1.658102   -1.055775
 H   -0.107647   -2.297640    1.650912
 H   -2.134634   -2.030040   -0.287101
 H   -2.711676   -0.388376    1.475191
 H   -1.785784   -0.264172   -1.891533
 H   -3.708372    1.178189   -1.474782
 H   -4.097243   -0.441446   -0.838904
 H   -3.121669    1.684132    0.719024
 H    4.600407    0.128665   -0.538153
 H    4.572562   -0.609921    1.068745
 H    5.012673    1.099118    0.887130
