30 
5xg5_ligand_ani-2x.xyz
 O   -1.258629    1.230809   -0.529287
 C    0.144714    1.097163   -0.640429
 O    0.532923    0.796407   -1.954621
 C    0.629876   -0.024542    0.282413
 N    2.056813   -0.248366    0.191982
 C   -0.080528   -1.335372   -0.077102
 O    0.356520   -2.387943    0.754983
 C   -1.585470   -1.132724    0.033410
 O   -1.851998   -0.919931    1.405578
 C   -2.001782    0.047048   -0.848593
 C   -3.467435    0.419310   -0.687256
 O   -3.754328    0.874123    0.630776
 C    2.961127    0.706632    0.564230
 O    2.620995    1.844473    0.847146
 C    4.402602    0.242329    0.577512
 H    0.571064    2.051551   -0.323222
 H    0.213390    1.514229   -2.517631
 H    0.357172    0.261703    1.307015
 H    2.339915   -1.220511    0.198272
 H    0.174739   -1.610288   -1.105447
 H   -0.076093   -2.242904    1.612341
 H   -2.105681   -2.041536   -0.316942
 H   -2.684003   -0.415919    1.471379
 H   -1.816830   -0.230625   -1.897108
 H   -3.737075    1.184666   -1.425830
 H   -4.095747   -0.460755   -0.853105
 H   -3.139971    1.606927    0.790219
 H    4.726396   -0.044347   -0.428831
 H    4.539434   -0.623809    1.235169
 H    5.027691    1.062103    0.932879
