70 
5xhs_ligand_dft.xyz
 C   -3.022012   -1.423743   -0.620593
 O   -3.212686   -0.416154   -1.296555
 O   -3.837866   -2.488843   -0.634508
 C   -5.048091   -2.356250   -1.403633
 C   -6.134990   -1.673156   -0.614116
 C   -6.339351   -0.296112   -0.722368
 C   -7.335253    0.326582    0.024035
 C   -8.132840   -0.420588    0.886520
 C   -7.931620   -1.793610    1.003336
 C   -6.936976   -2.414796    0.255360
 C    0.397745   -1.472979    0.435579
 N   -2.001794   -1.618238    0.236603
 O    0.413003   -2.685359    0.579974
 C   -0.917137   -0.682681    0.422849
 C   -1.069979    0.158075    1.701715
 C   -2.031290    2.361690    2.585169
 C   -0.732137    3.173652    2.463586
 C   -2.168160    1.217875    1.576871
 C    0.489284    3.835435   -1.102943
 C    0.221247    2.806168   -2.201359
 C   -1.173976    2.234739   -2.049058
 C    0.401865    3.174822    0.263891
 O    1.125416    2.214043    0.543970
 N   -0.487158    3.701535    1.129959
 O   -1.277649    1.001686   -2.534347
 O   -2.081357    2.829637   -1.504276
 N    1.490409   -0.671836    0.281370
 C    2.843464   -1.032883    0.242916
 C    3.759967    0.007013    0.093668
 C    5.115205   -0.280654    0.023858
 C    7.317873    0.635526   -0.222554
 C    7.831214   -0.726094   -0.139191
 C    7.032095   -1.803053    0.016997
 C    5.596678   -1.594598    0.104398
 C    4.650556   -2.617748    0.260864
 C    3.294015   -2.361159    0.330017
 C    7.593663   -3.192886    0.101545
 O    5.949199    0.782043   -0.129297
 O    7.982747    1.630217   -0.363614
 H   -5.321096   -3.386498   -1.639221
 H   -4.826670   -1.819319   -2.327853
 H   -5.705550    0.286623   -1.383008
 H   -7.489117    1.397319   -0.070867
 H   -8.912416    0.065776    1.465674
 H   -8.552698   -2.381513    1.672589
 H   -6.780705   -3.487030    0.346212
 H   -1.853284   -2.551281    0.599687
 H   -0.893462   -0.012425   -0.439495
 H   -1.265647   -0.513627    2.546723
 H   -0.110693    0.644533    1.892582
 H   -2.885886    3.039840    2.465545
 H   -2.082435    1.978693    3.612990
 H    0.141598    2.573182    2.722363
 H   -0.762869    4.015298    3.164059
 H   -3.152398    0.750591    1.693726
 H   -2.160632    1.642681    0.567846
 H    1.504067    4.231148   -1.210131
 H   -0.214104    4.666892   -1.191904
 H    0.951149    1.994249   -2.159709
 H    0.308500    3.271688   -3.189387
 H   -1.154079    4.360253    0.755045
 H   -2.130617    0.606046   -2.224566
 H    1.317893    0.332487    0.230987
 H    3.429956    1.039470    0.033794
 H    8.908940   -0.815910   -0.214311
 H    4.988559   -3.647096    0.329185
 H    2.578917   -3.162457    0.448208
 H    7.187145   -3.826969   -0.694312
 H    7.332584   -3.660541    1.057460
 H    8.682035   -3.182009    0.009639
