70 
5xhs_ligand_xtb.xyz
 C   -2.883739   -1.503917   -0.231539
 O   -2.794668   -0.862896   -1.262162
 O   -3.788338   -2.473766   -0.026398
 C   -4.761331   -2.692090   -1.054166
 C   -6.039804   -1.955621   -0.749010
 C   -6.072879   -0.567309   -0.812642
 C   -7.235829    0.117317   -0.509141
 C   -8.377129   -0.577364   -0.145159
 C   -8.350270   -1.959840   -0.081069
 C   -7.184900   -2.645861   -0.376475
 C    0.317831   -1.319020    0.783300
 N   -2.125361   -1.326020    0.865017
 O    0.309997   -2.517249    0.963813
 C   -0.961929   -0.473507    0.892310
 C   -0.931041    0.389755    2.159403
 C   -1.610852    2.698767    3.006847
 C   -0.323391    3.426179    2.597548
 C   -1.961337    1.519848    2.098161
 C    0.280855    3.914483   -1.123660
 C    0.128346    2.823762   -2.183285
 C   -1.074807    1.962993   -1.854797
 C    0.389790    3.274316    0.251503
 O    1.115265    2.311783    0.458413
 N   -0.325582    3.866341    1.220028
 O   -1.064961    0.807169   -2.487512
 O   -1.926936    2.293578   -1.063942
 N    1.398852   -0.559694    0.475641
 C    2.719387   -0.954852    0.301511
 C    3.652826    0.043308    0.052066
 C    4.988667   -0.281547   -0.141689
 C    7.179132    0.535763   -0.586058
 C    7.642642   -0.835245   -0.535256
 C    6.820433   -1.882320   -0.299218
 C    5.418733   -1.619824   -0.088392
 C    4.457776   -2.606591    0.166224
 C    3.134841   -2.290729    0.357893
 C    7.334973   -3.284035   -0.254675
 O    5.840140    0.740908   -0.380822
 O    7.874899    1.499947   -0.793498
 H   -4.926336   -3.771377   -1.077322
 H   -4.343274   -2.356848   -2.009981
 H   -5.184913   -0.024954   -1.101286
 H   -7.251532    1.195920   -0.560835
 H   -9.285998   -0.042400    0.087942
 H   -9.237836   -2.505958    0.202892
 H   -7.165177   -3.724748   -0.321132
 H   -2.186660   -2.036494    1.579615
 H   -1.022946    0.177812    0.019267
 H   -1.102456   -0.242248    3.033010
 H    0.068223    0.813401    2.243876
 H   -2.438801    3.410591    2.983248
 H   -1.491140    2.358013    4.036965
 H    0.545315    2.776762    2.716117
 H   -0.186511    4.301415    3.240912
 H   -2.943434    1.135483    2.376938
 H   -2.037380    1.883413    1.073023
 H    1.196305    4.479922   -1.308247
 H   -0.570875    4.592998   -1.160615
 H    1.008606    2.180170   -2.208932
 H   -0.004992    3.256937   -3.175557
 H   -0.999982    4.571022    0.967619
 H   -1.798750    0.215556   -2.174267
 H    1.258902    0.447491    0.392475
 H    3.351113    1.078211    0.012549
 H    8.700292   -0.968385   -0.700484
 H    4.761382   -3.640077    0.212591
 H    2.409311   -3.062195    0.552461
 H    6.842702   -3.891100   -1.012943
 H    7.133855   -3.729453    0.718467
 H    8.406495   -3.301377   -0.433239
