47 
5xo7_ligand_aiqm1.xyz
 C   -3.388079   -0.099918    0.835774
 C   -2.289391   -1.012912    0.300422
 C   -1.672173   -1.897507    1.376185
 C   -0.428139   -2.614963    0.893517
 C    0.211026   -3.505430    1.939285
 O    0.516251   -1.561653    0.528055
 C    1.378977   -1.842543   -0.444165
 O    1.386859   -2.946072   -0.984200
 C    2.360154   -0.786392   -0.776620
 C    3.549763   -1.232375   -1.410974
 O    3.754252   -2.501876   -1.795595
 C    4.608430   -0.359058   -1.660745
 C    4.483695    0.970495   -1.313985
 O    5.484858    1.868553   -1.517832
 C    3.302794    1.454309   -0.753202
 C    2.227183    0.606151   -0.495142
 C    0.986930    1.238902    0.006254
 C    0.654075    2.505424   -0.296611
 C   -0.540653    3.276057    0.200508
 C   -1.749711    2.449060    0.637892
 C   -2.555356    1.891342   -0.534273
 C   -3.749711    1.034653   -0.111386
 O   -4.360648    0.430639   -1.252092
 H   -3.077224    0.344033    1.787819
 H   -4.295520   -0.675892    1.036859
 H   -2.686620   -1.627613   -0.509909
 H   -1.499826   -0.407385   -0.142125
 H   -2.390775   -2.650977    1.710571
 H   -1.405761   -1.290587    2.250175
 H   -0.641245   -3.187041   -0.010343
 H    1.102391   -3.986001    1.540495
 H   -0.492679   -4.281517    2.241245
 H    0.486945   -2.920829    2.819357
 H    2.919882   -2.986198   -1.628529
 H    5.499865   -0.757256   -2.131168
 H    6.236573    1.420857   -1.910020
 H    3.250218    2.506886   -0.521597
 H    0.327556    0.644579    0.623148
 H    1.319772    3.073318   -0.942544
 H   -0.845941    3.981396   -0.576987
 H   -0.204883    3.893564    1.039426
 H   -2.405666    3.076379    1.248508
 H   -1.417947    1.632091    1.281408
 H   -1.911927    1.302219   -1.194744
 H   -2.931671    2.723043   -1.142026
 H   -4.484837    1.678299    0.395236
 H   -4.621765    1.129444   -1.855228
