89 
5xpl_ligand_aiqm1.xyz
 O   -2.188483    1.009120   -2.171027
 C   -3.358302    0.912549   -1.838655
 C   -4.077722   -0.367225   -2.048099
 C   -5.461297   -0.520612   -1.878774
 C   -6.073170   -1.748288   -2.088774
 C   -5.303691   -2.846075   -2.470148
 O   -5.955423   -4.027375   -2.659377
 C   -3.927730   -2.712847   -2.644556
 C   -3.326566   -1.480204   -2.435888
 C   -4.059212    2.090126   -1.194133
 C   -4.446315    1.869240    0.280652
 C   -3.350573    1.225508    1.150758
 C   -3.820549    1.090970    2.607146
 C   -5.057711    0.212226    2.806487
 C   -4.914326   -1.209958    2.267969
 C   -6.083692   -2.095155    2.686096
 C   -2.002092    1.969699    1.021981
 C   -2.011876    3.316377    1.757360
 C   -0.824179    1.082224    1.448959
 C    0.594815    1.630218    1.161875
 C    0.645267    2.266013   -0.244353
 C    1.163615    2.583626    2.219762
 C    2.662156    2.833457    2.002529
 C    3.466804    1.528328    1.947108
 C   -0.843509   -0.298216    0.714967
 C    0.624221   -0.666734    0.395821
 C    1.424264    0.324147    1.227015
 C    2.884210    0.556807    0.944446
 C    3.555968   -0.028961   -0.065285
 C    4.973825    0.171381   -0.382842
 C    5.658123   -0.383326   -1.398801
 C    7.135289   -0.114782   -1.574738
 C    7.929219   -1.421745   -1.595491
 O    7.862236   -2.103998   -0.343354
 C    5.084814   -1.348324   -2.408574
 C    5.878620   -2.647678   -2.428543
 O    5.324019   -3.458846   -3.459049
 C    7.347730   -2.343161   -2.632743
 C    8.075056   -2.779450   -3.665349
 H   -6.072612    0.325395   -1.592206
 H   -7.139691   -1.871396   -1.964249
 H   -5.321878   -4.696151   -2.927049
 H   -3.330923   -3.566327   -2.945170
 H   -2.260223   -1.361257   -2.572345
 H   -4.954061    2.330200   -1.772530
 H   -3.376730    2.935794   -1.287424
 H   -5.337709    1.237001    0.323685
 H   -4.737161    2.834784    0.705219
 H   -3.204550    0.211858    0.765251
 H   -4.028702    2.086137    3.014733
 H   -3.000751    0.676399    3.203620
 H   -5.271397    0.159760    3.878466
 H   -5.937015    0.683770    2.350694
 H   -4.836284   -1.192780    1.176007
 H   -3.980224   -1.640343    2.639244
 H   -7.030734   -1.681769    2.332945
 H   -5.985516   -3.103877    2.285080
 H   -6.142386   -2.169728    3.774148
 H   -1.859929    2.173888   -0.041409
 H   -1.226634    3.976706    1.390174
 H   -2.957669    3.848508    1.625613
 H   -1.857475    3.186788    2.832844
 H   -0.882259    0.901230    2.533562
 H    0.136526    3.233511   -0.253381
 H    1.664487    2.437602   -0.592890
 H    0.142483    1.641755   -0.987915
 H    1.017563    2.130053    3.208834
 H    0.628787    3.535809    2.224396
 H    3.052778    3.461159    2.808523
 H    2.813647    3.387455    1.072206
 H    3.425792    1.051748    2.932894
 H    4.517168    1.742878    1.753121
 H   -1.410158   -0.202030   -0.212351
 H   -1.327799   -1.065056    1.324228
 H    0.857896   -1.704486    0.638336
 H    0.835581   -0.521427   -0.665650
 H    1.374808    0.000670    2.281264
 H    3.020305   -0.721263   -0.708705
 H    5.527368    0.846620    0.267906
 H    7.512620    0.528119   -0.772322
 H    7.306544    0.407973   -2.519840
 H    8.975080   -1.205386   -1.841615
 H    8.064138   -1.478476    0.355486
 H    4.039427   -1.575503   -2.202080
 H    5.127009   -0.903754   -3.408344
 H    5.767712   -3.143097   -1.458361
 H    5.698096   -4.337616   -3.373861
 H    9.120753   -2.513029   -3.756393
 H    7.639867   -3.387475   -4.446964
