94 
5xpm_ligand_aiqm1.xyz
 O   -4.601640    6.028997   -3.726719
 C   -4.766231    4.866875   -3.024491
 C   -4.790845    4.954930   -1.636063
 C   -4.959728    3.796970   -0.884443
 C   -4.911593    3.631818   -3.648022
 C   -5.074509    2.481879   -2.882039
 C   -5.096442    2.544425   -1.487699
 C   -5.266867    1.289935   -0.657884
 O   -6.372296    0.518020   -1.102952
 C   -7.612102    1.154561   -0.877073
 C   -4.044226    0.389281   -0.716581
 C   -4.170097   -0.854680    0.159627
 C   -2.868744   -1.671829    0.227695
 C   -3.146705   -3.126716    0.628735
 C   -3.714886   -3.970782   -0.506518
 C   -4.070521   -5.388377   -0.073786
 C   -4.615297   -6.236981   -1.216950
 C   -1.823523   -0.996921    1.150886
 C   -2.159691   -1.222270    2.631565
 C   -0.404229   -1.456169    0.787360
 C   -0.037005   -1.119171   -0.694612
 C    0.784752   -0.894445    1.606646
 C    0.635662    0.625630    1.827291
 C    1.069658   -1.616201    2.930847
 C    2.432898   -1.215111    3.512115
 C    3.578604   -1.413076    2.510720
 C    1.959225   -1.219011    0.647865
 C    1.468665   -0.765099   -0.720406
 C    3.285025   -0.749271    1.183322
 C    4.081693    0.133493    0.550776
 C    5.376100    0.622062    1.038595
 C    6.177554    1.517730    0.436077
 C    7.505577    1.906371    1.043883
 C    5.889950    2.182241   -0.889460
 C    7.018437    1.917009   -1.874510
 O    6.707337    2.622006   -3.070768
 C    8.338821    2.335494   -1.259762
 C    9.157794    3.247767   -1.794337
 C    8.649781    1.676327    0.065072
 O    8.803935    0.263569   -0.078495
 H   -4.597328    5.824384   -4.664016
 H   -4.681785    5.921739   -1.163417
 H   -4.985427    3.868162    0.197124
 H   -4.900100    3.565222   -4.730991
 H   -5.199986    1.525832   -3.373935
 H   -5.443439    1.599217    0.387563
 H   -7.677605    2.100475   -1.423078
 H   -8.388721    0.480804   -1.232674
 H   -7.764992    1.348099    0.190619
 H   -3.167771    0.975433   -0.423900
 H   -3.891428    0.087309   -1.758591
 H   -4.476039   -0.564269    1.173252
 H   -4.981489   -1.478465   -0.224484
 H   -2.455637   -1.694506   -0.787064
 H   -2.223766   -3.600870    0.984452
 H   -3.840850   -3.138362    1.477182
 H   -2.983236   -4.014008   -1.321630
 H   -4.603519   -3.484262   -0.923424
 H   -4.806289   -5.340947    0.734332
 H   -3.182236   -5.868473    0.348710
 H   -5.516342   -5.787966   -1.639536
 H   -3.880121   -6.325444   -2.019672
 H   -4.867580   -7.243401   -0.880575
 H   -1.874122    0.085246    0.963386
 H   -1.912587   -2.239652    2.944547
 H   -3.223224   -1.074157    2.831533
 H   -1.618094   -0.539092    3.285392
 H   -0.357454   -2.549320    0.902072
 H   -0.633428   -0.273484   -1.045341
 H   -0.253203   -1.962976   -1.351787
 H    0.447191    1.157547    0.891405
 H   -0.199212    0.848354    2.495223
 H    1.526324    1.069960    2.274574
 H    1.069185   -2.696769    2.737127
 H    0.284123   -1.425022    3.664612
 H    2.410067   -0.168651    3.828706
 H    2.636699   -1.806721    4.408609
 H    3.696515   -2.486062    2.324302
 H    4.517167   -1.072118    2.944271
 H    2.021157   -2.320560    0.633142
 H    1.620972    0.310632   -0.838594
 H    1.997342   -1.257073   -1.537439
 H    3.759121    0.521156   -0.412137
 H    5.719550    0.219689    1.988921
 H    7.698800    1.337775    1.955946
 H    7.496457    2.969411    1.306111
 H    4.953430    1.834879   -1.324338
 H    5.801672    3.265039   -0.751530
 H    7.063582    0.840032   -2.075116
 H    7.344471    2.364205   -3.739762
 H    8.916039    3.764725   -2.713579
 H   10.075416    3.526082   -1.289727
 H    9.572552    2.111202    0.464630
 H    9.544687    0.098536   -0.666513
