82 
5xpn_ligand_xtb.xyz
 O  -10.885303    2.012226   -1.859691
 C   -9.675970    1.438269   -1.611008
 C   -9.607190    0.435016   -0.649622
 C   -8.399301   -0.173945   -0.374226
 C   -8.522814    1.820460   -2.285567
 C   -7.317381    1.209842   -1.996224
 C   -7.241688    0.206006   -1.040813
 C   -5.908529   -0.432147   -0.720720
 O   -5.117568   -0.636019   -1.879327
 C   -5.619881   -1.628287   -2.733524
 C   -5.111534    0.473144    0.227360
 C   -3.831196   -0.199692    0.715180
 C   -3.014153    0.745492    1.592565
 C   -1.721911    0.144750    2.177303
 C   -2.068773   -1.005327    3.123878
 C   -0.743879   -0.273236    1.067818
 C    0.651100   -0.800111    1.485162
 C    1.281417    0.073850    2.571374
 C    0.706028   -2.278689    1.878724
 C    2.150494   -2.772028    1.974445
 C    2.942969   -2.505674    0.689621
 C   -0.420741    0.902498    0.113177
 C    1.047874    0.751640   -0.319687
 C    1.415398   -0.651962    0.144663
 C    2.849384   -1.059529    0.289012
 C    3.880519   -0.229299    0.090221
 C    5.279872   -0.548598    0.221265
 C    6.310219    0.286108    0.034083
 C    6.220240    1.717430   -0.395179
 C    6.959405    1.906421   -1.733997
 O    6.834714    3.258805   -2.106995
 C    7.728726   -0.187933    0.173372
 C    8.466426   -0.011114   -1.169306
 O    7.879735   -0.788026   -2.194828
 C    8.382749    1.439830   -1.564302
 C    9.444567    2.218263   -1.682631
 H  -10.790924    2.688784   -2.540953
 H  -10.510086    0.146509   -0.135533
 H   -8.355270   -0.955561    0.370690
 H   -8.571496    2.598985   -3.036160
 H   -6.421171    1.502204   -2.522793
 H   -6.084292   -1.405111   -0.228681
 H   -5.674929   -2.599081   -2.223220
 H   -6.618640   -1.374157   -3.108150
 H   -4.925969   -1.698147   -3.569264
 H   -5.749234    0.736259    1.073757
 H   -4.862897    1.388280   -0.311873
 H   -3.255128   -0.498449   -0.159712
 H   -4.093062   -1.097842    1.276700
 H   -2.771546    1.635480    1.010519
 H   -3.640606    1.071081    2.427994
 H   -1.254359    0.938237    2.770333
 H   -2.933417   -0.741331    3.729779
 H   -2.300273   -1.911316    2.570167
 H   -1.245986   -1.216707    3.800395
 H   -1.221514   -1.072356    0.492275
 H    1.059979    1.123249    2.404207
 H    2.362635   -0.040502    2.575702
 H    0.901557   -0.201698    3.552556
 H    0.175025   -2.868706    1.126635
 H    0.217912   -2.449407    2.837672
 H    2.650249   -2.279490    2.809961
 H    2.150862   -3.845555    2.179174
 H    2.520269   -3.114715   -0.116356
 H    3.974825   -2.821714    0.835272
 H   -0.565037    1.855724    0.621928
 H   -1.086930    0.886065   -0.748497
 H    1.667262    1.497343    0.176650
 H    1.174733    0.869588   -1.395295
 H    0.951119   -1.359084   -0.556101
 H    3.658607    0.783615   -0.209395
 H    5.514094   -1.563674    0.516522
 H    5.194317    2.054958   -0.521237
 H    6.702904    2.365041    0.342144
 H    6.480846    1.257671   -2.486616
 H    7.304897    3.388375   -2.937041
 H    8.254574    0.405944    0.925931
 H    7.765061   -1.237549    0.477767
 H    9.523112   -0.302980   -1.045197
 H    7.705422   -1.670909   -1.851320
 H   10.442536    1.840988   -1.538183
 H    9.356446    3.266128   -1.914929
