77 
5xpo_ligand_xtb.xyz
 O    2.130834   -3.170187    4.192563
 C    2.756363   -2.464070    3.430744
 C    2.361654   -1.064056    3.165745
 C    1.003684   -0.750697    3.244168
 C    0.545292    0.504681    2.913698
 C    1.446227    1.496566    2.528672
 O    1.036984    2.732388    2.179564
 C    2.811300    1.208563    2.507122
 C    3.259912   -0.059308    2.808282
 C    3.935688   -3.005625    2.644854
 C    3.775971   -2.802085    1.133491
 C    2.385690   -3.218033    0.652420
 C    2.273296   -3.212390   -0.879349
 C    2.710154   -4.575780   -1.421434
 C    0.882949   -2.855104   -1.444646
 C    0.605940   -1.356798   -1.704068
 C    0.946663   -0.476048   -0.502759
 C    1.277988   -0.811086   -2.966146
 C    0.707378    0.554434   -3.353615
 C   -0.824651    0.539037   -3.457166
 C   -0.346475   -3.344216   -0.643229
 C   -1.435643   -2.264201   -0.802977
 C   -0.919895   -1.401366   -1.950608
 C   -1.453150   -0.028153   -2.213189
 C   -2.336952    0.597306   -1.426634
 C   -2.891490    1.914709   -1.640639
 C   -3.631075    2.615094   -0.771999
 C   -4.132269    3.996378   -1.081805
 C   -3.891329    2.250655    0.657319
 C   -2.862907    3.043057    1.484027
 O   -1.610022    2.383461    1.458865
 C   -2.757956    4.461771    0.952395
 C   -1.695616    5.220940    1.164182
 C   -3.936258    4.930677    0.130209
 O   -5.137992    4.926482    0.884932
 H    0.314631   -1.526511    3.545102
 H   -0.510513    0.732716    2.939101
 H    0.061175    2.742627    2.123225
 H    3.500418    1.993952    2.238326
 H    4.320672   -0.259349    2.791299
 H    4.849480   -2.517774    2.991289
 H    4.013336   -4.070999    2.871838
 H    4.543102   -3.387300    0.621836
 H    3.935085   -1.751600    0.881563
 H    1.667374   -2.528764    1.090664
 H    2.158873   -4.217437    1.029612
 H    2.972552   -2.462682   -1.266476
 H    2.788427   -4.556888   -2.506534
 H    1.989607   -5.340974   -1.140907
 H    3.680405   -4.855932   -1.018119
 H    0.834241   -3.331881   -2.430953
 H    0.506774   -0.861377    0.410053
 H    2.023005   -0.417981   -0.363076
 H    0.568714    0.532798   -0.646643
 H    2.356204   -0.721045   -2.816762
 H    1.115323   -1.510952   -3.790411
 H    1.009288    1.302491   -2.618983
 H    1.124301    0.858711   -4.316494
 H   -1.110841   -0.091347   -4.305259
 H   -1.173294    1.550065   -3.662937
 H   -0.691525   -4.300287   -1.037142
 H   -0.111090   -3.495484    0.406995
 H   -2.410649   -2.695689   -1.027592
 H   -1.529611   -1.681934    0.112830
 H   -1.068344   -1.976527   -2.874716
 H   -2.688824    0.072135   -0.549837
 H   -2.712743    2.361334   -2.610033
 H   -5.205429    3.966204   -1.289371
 H   -3.623653    4.406511   -1.954594
 H   -3.773234    1.188102    0.863875
 H   -4.897557    2.559721    0.938716
 H   -3.151040    3.062795    2.542483
 H   -1.417665    2.166828    0.535105
 H   -0.849996    4.871602    1.731787
 H   -1.627425    6.219895    0.767570
 H   -3.741139    5.953372   -0.227716
 H   -5.028704    5.501361    1.649298
