20 
5y1y_ligand_xtb.xyz
 C   -9.715553   -5.857791   -0.875394
 N   -8.371078   -6.321102   -1.043327
 O   -7.803917   -6.023338   -2.076562
 C  -10.121338   -4.808961   -1.680071
 N  -12.859546   -6.305570    0.998951
 O   -7.857437   -6.973354   -0.154349
 C  -11.392229   -4.256855   -1.589121
 O  -13.522006   -4.271425   -0.543071
 C  -12.293470   -4.767965   -0.676886
 C  -11.909304   -5.863025    0.153852
 C  -12.583047   -7.314212    1.779796
 C  -11.342228   -7.967949    1.767607
 C  -10.358730   -7.530753    0.917843
 C  -10.610775   -6.428429    0.071370
 H   -9.411926   -4.409340   -2.389700
 H  -11.682267   -3.431338   -2.217666
 H  -13.967373   -4.794257    0.151623
 H  -13.375825   -7.632029    2.443835
 H  -11.171188   -8.807687    2.422152
 H   -9.396464   -8.016719    0.897717
