20 
5y1y_ligand_dft.xyz
 C    1.186949   -0.331166   -0.001289
 N    2.546793    0.197160   -0.008039
 O    3.466718   -0.587796    0.173792
 C    1.064850   -1.704278   -0.006067
 N   -2.422163    0.494859    0.005727
 O    2.712735    1.395558   -0.205055
 C   -0.181089   -2.341855   -0.018147
 O   -2.536953   -2.122075   -0.030084
 C   -1.323914   -1.574941   -0.018646
 C   -1.226756   -0.143775   -0.003906
 C   -2.424188    1.807067    0.029126
 C   -1.236513    2.565443    0.048817
 C   -0.019855    1.931367    0.035006
 C    0.030365    0.511140    0.002909
 H    1.972007   -2.295620   -0.003377
 H   -0.253325   -3.422783   -0.028676
 H   -3.163334   -1.368568   -0.023735
 H   -3.395134    2.296313    0.035515
 H   -1.290499    3.648432    0.074228
 H    0.898776    2.498589    0.046186
