12 
5y48_ligand_aiqm1.xyz
 N   -8.099159  -21.071138   -1.482037
 C   -6.831474  -21.480944   -1.983573
 O   -5.868127  -21.588126   -1.273784
 N   -6.728243  -21.761710   -3.349914
 C   -7.723610  -21.697715   -4.297326
 O   -7.527436  -21.967667   -5.456889
 C   -9.065418  -21.264339   -3.762556
 C   -9.076624  -20.983489   -2.294925
 H   -5.817469  -22.049306   -3.672992
 H   -9.795188  -22.038053   -4.000154
 H   -9.383545  -20.379227   -4.313210
 H  -10.030006  -20.667685   -1.875639
