40 
5yjy_ligand_ani-2x.xyz
 C    5.674563   14.054587   63.365393
 O    6.625077   14.385910   62.462506
 C    5.160480   15.063298   64.161545
 C    4.190550   14.802447   65.115418
 N    3.747343   13.530732   65.294323
 O    2.902607   13.260906   66.205831
 C    4.210923   12.484459   64.494055
 C    3.673554   11.195447   64.695579
 C    4.110970   10.150835   63.918951
 C    5.090052   10.368362   62.927535
 C    5.616454   11.619136   62.725259
 C    5.188439   12.725888   63.508707
 C    3.517527   15.844851   65.962831
 C    1.860480   16.471038   64.109258
 C    2.047459   16.076638   65.575903
 C    0.461708   16.997758   63.773779
 C   -0.669622   15.994441   64.002248
 C   -2.059533   16.534800   63.650780
 C   -2.252117   16.832931   62.164677
 H    6.927839   13.600438   61.989713
 H    5.521797   16.078488   64.027824
 H    2.925921   11.076242   65.468555
 H    3.703051    9.154256   64.067761
 H    5.429848    9.534443   62.318194
 H    6.368352   11.749139   61.946091
 H    4.087221   16.773143   65.868891
 H    3.562581   15.515319   67.003884
 H    2.092450   15.607240   63.470449
 H    2.591680   17.250056   63.849975
 H    1.645009   16.868858   66.223687
 H    1.490189   15.164076   65.800570
 H    0.459472   17.321290   62.725170
 H    0.262204   17.900204   64.371504
 H   -0.672044   15.679269   65.053952
 H   -0.477158   15.088381   63.408200
 H   -2.252895   17.444635   64.236135
 H   -2.812984   15.803124   63.968716
 H   -1.582332   17.627221   61.817871
 H   -2.052651   15.942087   61.557260
 H   -3.277563   17.155929   61.956723
