47 
5ykp_ligand_ani-2x.xyz
 C   -3.821229    0.242561    0.850726
 C   -3.757718   -0.503614   -0.461674
 C   -2.383213   -1.124154   -0.769063
 C   -1.307273   -0.003491   -0.711858
 C   -1.323906    0.655739    0.691385
 C   -2.705167    1.285336    0.935301
 O   -1.136624   -0.422238    1.611022
 C   -0.231120    1.701765    0.891090
 C    0.083297   -0.539138   -1.120685
 C    1.004010    0.447731   -1.699916
 C    2.512499    0.359055   -1.669677
 C    3.076892    1.260343   -0.611300
 C    3.786135    0.931735    0.469568
 C    0.560117   -1.821251   -0.481447
 O    0.328124   -0.486669   -2.532507
 C    4.067035   -0.486836    0.892792
 C    4.380233    1.993502    1.360149
 O   -2.338665   -1.658856   -2.063086
 C   -3.086701   -2.847239   -2.229216
 O   -4.691769   -0.581646   -1.225061
 O   -1.695656    0.977943   -1.643246
 H   -3.683779   -0.488695    1.656608
 H   -4.810017    0.695148    0.952883
 H   -2.170768   -1.888088   -0.007380
 H   -2.858846    2.065351    0.183147
 H   -2.714072    1.765676    1.922662
 H   -0.835119   -0.038206    2.445231
 H    0.769967    1.263523    0.825420
 H   -0.315783    2.503016    0.152499
 H   -0.338362    2.151755    1.884977
 H    0.623389    1.468956   -1.791136
 H    2.841224   -0.675408   -1.552541
 H    2.869976    0.682628   -2.657010
 H    2.866332    2.321986   -0.769224
 H    1.525813   -2.109323   -0.900570
 H   -0.141579   -2.630649   -0.710214
 H    0.633260   -1.708841    0.602154
 H    3.920934   -0.600208    1.973330
 H    3.412138   -1.205076    0.392591
 H    5.107621   -0.761510    0.680983
 H    4.142715    3.001268    1.003669
 H    5.471582    1.895084    1.412026
 H    4.004365    1.894341    2.386094
 H   -4.158961   -2.634675   -2.242389
 H   -2.779409   -3.280728   -3.185533
 H   -2.867871   -3.565201   -1.425210
 H   -1.834352    0.497200   -2.475663
