49 
5yl2_ligand_xtb.xyz
 C   16.467367  221.163926   47.997702
 O   17.184220  222.362780   47.843859
 C   17.412592  222.824542   46.589053
 C   16.988958  222.217559   45.415231
 C   17.282501  222.776001   44.184067
 C   18.002173  223.963998   44.078900
 C   18.251868  224.522570   42.768305
 C   18.832873  225.697107   42.488802
 C   19.064998  226.186104   41.125078
 O   20.000267  226.924648   40.867389
 C   18.137632  225.726759   40.058946
 C   18.662592  225.462552   38.798204
 C   17.873400  225.037571   37.748355
 C   16.505651  224.869935   37.940107
 O   15.638794  224.437080   36.986063
 C   16.139426  224.138368   35.705624
 C   15.941433  225.165212   39.191301
 C   14.532884  224.953644   39.470839
 C   14.008394  225.387402   40.612432
 C   14.828885  226.180072   41.592372
 C   14.580110  227.681107   41.370068
 C   14.499406  225.784984   43.034050
 O   16.235667  225.931303   41.447222
 C   16.750076  225.614997   40.242473
 C   18.429204  224.573525   45.265014
 C   18.148815  224.025850   46.498229
 O   18.558159  224.601939   47.659997
 H   15.453144  221.245723   47.592698
 H   16.981811  220.322602   47.521547
 H   16.412704  220.990765   49.071189
 H   16.425686  221.298680   45.451679
 H   16.939043  222.281946   43.287142
 H   17.909277  223.909261   41.943950
 H   19.248201  226.326091   43.263077
 H   19.724976  225.592625   38.657303
 H   18.330566  224.835768   36.793614
 H   16.586237  225.018628   35.233239
 H   16.876294  223.329688   35.740071
 H   15.278366  223.815733   35.122076
 H   13.956548  224.411823   38.738394
 H   12.975158  225.225330   40.874356
 H   14.865203  227.954076   40.356068
 H   13.528798  227.914147   41.515116
 H   15.177523  228.260464   42.069719
 H   13.465550  226.024907   43.264637
 H   14.661113  224.718598   43.172875
 H   15.154512  226.320665   43.715521
 H   18.997782  225.491452   45.223667
 H   19.055561  225.405390   47.463881
