52 
5yls_ligand_xtb.xyz
 C   16.107818  222.388753   47.569647
 O   16.746039  223.640060   47.569646
 C   17.065342  224.206065   46.360729
 C   16.774458  223.662059   45.122377
 C   17.132534  224.328821   43.962648
 C   17.779571  225.562882   44.009809
 C   18.088962  226.236514   42.766759
 C   18.619122  227.457993   42.618685
 C   18.899596  228.067681   41.313774
 O   19.796894  228.880113   41.169238
 C   18.067748  227.626519   40.163357
 C   18.683302  227.429914   38.936733
 C   17.975523  227.005079   37.828602
 C   16.610720  226.771760   37.941828
 O   15.812440  226.332691   36.925992
 C   16.397149  226.093587   35.669219
 C   15.955488  226.991424   39.160696
 C   14.483030  226.708839   39.274322
 C   14.092298  226.581618   40.741705
 C   14.677621  227.736946   41.559773
 C   14.395985  227.535018   43.050053
 C   14.135867  229.093619   41.097533
 O   16.101638  227.742788   41.451156
 C   16.674391  227.442333   40.263286
 C   18.068644  226.105989   45.264664
 C   17.731614  225.449842   46.436070
 N   18.089906  225.947302   47.671607
 H   15.130492  222.434690   47.077467
 H   16.723161  221.624324   47.084710
 H   15.969998  222.127119   48.617899
 H   16.266120  222.713660   45.045155
 H   16.897076  223.884872   43.006493
 H   17.840145  225.674006   41.874483
 H   18.946219  228.041918   43.466650
 H   19.745668  227.607222   38.865934
 H   18.492860  226.856396   36.895166
 H   16.830379  227.005639   35.246902
 H   17.166836  225.317092   35.723831
 H   15.585665  225.751375   35.028436
 H   14.257651  225.784654   38.738267
 H   13.909636  227.502593   38.787924
 H   14.492407  225.647055   41.142836
 H   13.008011  226.565114   40.853587
 H   13.326809  227.564794   43.239376
 H   14.794168  226.578411   43.379970
 H   14.884117  228.319050   43.622036
 H   14.474270  229.316679   40.089180
 H   13.049312  229.094717   41.118600
 H   14.503988  229.875727   41.756930
 H   18.574846  227.055542   45.339109
 H   17.588590  225.553810   48.451122
 H   18.260574  226.938035   47.722227
