52 
5yls_ligand_ani-2x.xyz
 C   16.597944  222.143577   47.922989
 O   17.171707  223.433156   47.872985
 C   17.311016  224.006351   46.643200
 C   16.913820  223.430151   45.443723
 C   17.097279  224.121557   44.247988
 C   17.681492  225.387441   44.235356
 C   17.860620  226.071992   42.946169
 C   18.600282  227.170095   42.733167
 C   18.763401  227.884530   41.437664
 O   19.633244  228.736107   41.354347
 C   17.939148  227.546652   40.217976
 C   18.620442  227.425130   39.014848
 C   17.973390  227.049858   37.841173
 C   16.600670  226.813939   37.877826
 O   15.878518  226.416165   36.795054
 C   16.567311  226.244595   35.577586
 C   15.858156  226.987950   39.056611
 C   14.364112  226.756677   39.057635
 C   13.813966  226.818423   40.476700
 C   14.456294  227.958236   41.268437
 C   13.968793  227.932733   42.712282
 C   14.190766  229.326569   40.638636
 O   15.870521  227.730511   41.347207
 C   16.529831  227.423699   40.199524
 C   18.073450  225.955915   45.453911
 C   17.902053  225.289548   46.660563
 N   18.343332  225.811518   47.868772
 H   15.573300  222.147390   47.528917
 H   17.197715  221.418358   47.357718
 H   16.581197  221.859100   48.975562
 H   16.458755  222.445053   45.427860
 H   16.790684  223.660164   43.312780
 H   17.329740  225.610767   42.112352
 H   19.208130  227.616105   43.516262
 H   19.689283  227.620269   39.008578
 H   18.538371  226.943720   36.922144
 H   17.028906  227.182576   35.241388
 H   17.345273  225.474053   35.660719
 H   15.819925  225.927460   34.848948
 H   14.128703  225.796603   38.588937
 H   13.882270  227.516147   38.426908
 H   14.030978  225.878828   40.998939
 H   12.724941  226.950335   40.475999
 H   12.885869  228.091524   42.752343
 H   14.196637  226.967313   43.174151
 H   14.458140  228.721066   43.292260
 H   14.573416  229.385619   39.614679
 H   13.113599  229.526871   40.617489
 H   14.680431  230.106584   41.228541
 H   18.518374  226.949086   45.477537
 H   17.942012  225.375266   48.685863
 H   18.404493  226.817367   47.924999
