57 
5yqw_ligand_ani-2x.xyz
 C   -1.200533   -0.150500   -0.536032
 C   -2.662807   -0.416048   -0.160234
 C   -3.465438   -0.875422   -1.387839
 C   -3.180181    0.040028   -2.574546
 C   -1.685331    0.160121   -2.828121
 C   -1.343820    1.095656   -3.985076
 C   -3.725719   -1.627397    1.720917
 C   -3.452672   -2.491295    2.931166
 N   -2.654599   -1.398266    0.921992
 O   -0.567879    0.459979    0.543851
 O   -4.859001   -0.820711   -1.213372
 O   -3.813059   -0.459967   -3.733613
 O   -1.079740    0.694014   -1.655894
 O   -1.645467    0.520451   -5.231605
 O   -4.839584   -1.161085    1.480498
 C    3.294654    0.339459    2.151480
 C    3.195367    0.490308    0.605323
 C    1.789413    0.930835    0.183955
 C    0.746235    0.027301    0.833280
 C    0.933299    0.091248    2.340545
 C   -0.098617   -0.741345    3.085714
 C    5.448622    1.585258    0.167389
 C    6.136760    2.522870   -0.800414
 N    4.105033    1.473265    0.016747
 O    4.412072   -0.346133    2.560596
 O    1.740786    0.892574   -1.224746
 O    2.215072   -0.423294    2.644748
 O   -0.212995   -2.046235    2.535440
 O    6.112929    0.998259    1.021632
 H   -0.704962   -1.106457   -0.783511
 H   -3.101285    0.526517    0.196585
 H   -3.154395   -1.902903   -1.650652
 H   -3.568127    1.040525   -2.325393
 H   -1.268844   -0.838864   -3.049427
 H   -0.265452    1.287867   -3.968545
 H   -1.855321    2.063279   -3.838083
 H   -2.951188   -3.422796    2.649987
 H   -2.793882   -1.969605    3.635381
 H   -4.398798   -2.714837    3.424826
 H   -1.750518   -1.731724    1.255366
 H   -5.061697   -0.957142   -0.264444
 H   -4.742982   -0.596275   -3.503148
 H   -2.556708    0.196535   -5.168382
 H    3.258868    1.358658    2.598954
 H    3.391779   -0.509632    0.189207
 H    1.611164    1.961506    0.542133
 H    0.908112   -1.005266    0.492536
 H    0.853760    1.137801    2.679322
 H   -1.077816   -0.265170    2.990157
 H    0.162372   -0.792129    4.150088
 H    6.669104    3.283977   -0.223233
 H    6.888260    1.954681   -1.356233
 H    5.462032    3.013959   -1.507412
 H    3.717881    1.889179   -0.822438
 H    5.191802    0.090581    2.145442
 H    0.824669    1.086464   -1.491764
 H    0.669269   -2.442658    2.588802
