57 
5yqw_ligand_dft.xyz
 C   -1.237441    0.211224    0.140215
 C   -2.620103   -0.434779    0.315598
 C   -3.698692    0.480180   -0.295503
 C   -3.492878    1.917791    0.171902
 C   -2.080895    2.408377   -0.110679
 C   -1.834937    3.836950    0.370239
 C   -3.501455   -2.689160   -0.292346
 C   -3.121457   -4.052612   -0.824707
 N   -2.523851   -1.751494   -0.313236
 O   -0.317134   -0.521476    0.869519
 O   -5.011969    0.173522    0.084863
 O   -4.423204    2.767427   -0.465189
 O   -1.198287    1.543901    0.605223
 O   -2.505348    4.773314   -0.429581
 O   -4.643061   -2.467482    0.112197
 C    3.753054   -1.302364    0.568674
 C    3.296758    0.064773    0.018460
 C    1.930693    0.425606    0.601375
 C    0.961706   -0.710681    0.288117
 C    1.519109   -2.034004    0.814435
 C    0.603739   -3.207943    0.505483
 C    5.313580    1.344660   -0.504696
 C    5.992720    2.687978   -0.372747
 N    4.228566    1.145241    0.293519
 O    4.964260   -1.723538    0.099102
 O    1.538237    1.655925    0.045393
 O    2.764718   -2.267920    0.196270
 O    0.153020   -3.204431   -0.840550
 O    5.709509    0.492132   -1.294966
 H   -0.973969    0.206142   -0.933171
 H   -2.817423   -0.543569    1.389639
 H   -3.583189    0.452481   -1.393547
 H   -3.639156    1.937729    1.263808
 H   -1.868098    2.361034   -1.189770
 H   -0.764779    4.056304    0.296145
 H   -2.118357    3.909031    1.433145
 H   -2.052339   -4.161703   -1.019655
 H   -3.445161   -4.803517   -0.099846
 H   -3.678713   -4.231443   -1.749104
 H   -1.599917   -2.064133   -0.599582
 H   -5.102709   -0.803844    0.103134
 H   -5.283105    2.329372   -0.377368
 H   -3.433504    4.494703   -0.471170
 H    3.787262   -1.266940    1.671679
 H    3.194315   -0.047871   -1.069920
 H    2.016325    0.506879    1.699619
 H    0.858856   -0.787975   -0.801914
 H    1.637513   -1.969086    1.909875
 H   -0.294624   -3.144443    1.122811
 H    1.131284   -4.139903    0.741237
 H    7.061602    2.561325   -0.549444
 H    5.598503    3.363430   -1.139385
 H    5.834183    3.144401    0.608053
 H    3.821869    1.965590    0.722575
 H    5.249266   -1.140475   -0.632448
 H    0.651213    1.864812    0.391246
 H    0.932913   -3.251538   -1.409800
