33 
5yun_ligand_ani-2x.xyz
 C  -24.309678   -2.694441  -14.617010
 C  -24.194935   -1.316190  -14.503989
 C  -24.459368   -0.479706  -15.620207
 C  -24.842292   -1.088652  -16.816296
 C  -24.968219   -2.463556  -16.947893
 C  -24.693975   -3.256342  -15.834657
 C  -24.347922    0.963652  -15.547198
 C  -24.616618    1.678369  -16.787303
 C  -24.951942    1.010042  -17.925573
 C  -25.225885    1.619017  -19.238079
 C  -26.020912    0.910884  -20.155560
 C  -26.286543    1.443006  -21.404517
 C  -25.746532    2.679263  -21.760555
 C  -24.953865    3.375341  -20.856421
 C  -24.696141    2.865256  -19.594700
 O  -25.132418   -0.348549  -17.917876
 O  -24.041757    1.600702  -14.522355
 O  -24.478663    4.576181  -21.311668
 O  -26.032813    3.151237  -23.007773
 O  -27.059808    0.765455  -22.285476
 O  -24.521342    3.023723  -16.725589
 O  -24.788270   -4.607449  -15.875678
 O  -23.831263   -0.807712  -13.326718
 H  -24.103843   -3.328572  -13.763701
 H  -25.274723   -2.880933  -17.901357
 H  -26.434833   -0.056748  -19.895746
 H  -24.085466    3.426841  -18.899474
 H  -23.949481    4.995845  -20.621476
 H  -25.594496    4.008626  -23.111243
 H  -27.118039    1.300332  -23.091622
 H  -24.290637    3.231483  -15.803694
 H  -25.060807   -4.878690  -16.761082
 H  -23.806418    0.169082  -13.415112
