33 
5yun_ligand_xtb.xyz
 C  -24.454179   -2.658923  -14.572091
 C  -24.162333   -1.308766  -14.508291
 C  -24.380243   -0.497399  -15.652218
 C  -24.886405   -1.074266  -16.826183
 C  -25.174863   -2.433225  -16.874456
 C  -24.957153   -3.216337  -15.748170
 C  -24.094339    0.906955  -15.638914
 C  -24.361193    1.627092  -16.875262
 C  -24.856482    0.987170  -17.978211
 C  -25.166755    1.586663  -19.272215
 C  -25.668791    0.780314  -20.295774
 C  -25.973293    1.316819  -21.534382
 C  -25.777478    2.681247  -21.767672
 C  -25.276275    3.487037  -20.746255
 C  -24.973122    2.948331  -19.510302
 O  -25.109604   -0.347226  -17.935210
 O  -23.642635    1.539623  -14.662203
 O  -25.107498    4.816766  -21.039691
 O  -26.085599    3.189928  -23.000386
 O  -26.459914    0.523909  -22.519768
 O  -24.072293    2.948747  -16.803630
 O  -25.221766   -4.539446  -15.746396
 O  -23.682215   -0.775901  -13.386097
 H  -24.293910   -3.286453  -13.712250
 H  -25.563627   -2.857646  -17.787343
 H  -25.828413   -0.272570  -20.141380
 H  -24.587134    3.586594  -18.734325
 H  -24.758187    5.268192  -20.263548
 H  -25.889203    4.135481  -22.979447
 H  -26.608587    1.076885  -23.299782
 H  -23.742501    3.070564  -15.885394
 H  -25.563154   -4.814705  -16.606704
 H  -23.540757    0.191346  -13.543649
