41 
5yyb_ligand_aiqm1.xyz
 O    0.570206   -2.662741    1.106478
 C    0.890228   -2.026694    2.352461
 C    0.123398   -0.716772    2.476077
 O    0.155649   -0.311419    3.833387
 C    0.674059    0.441282    1.642686
 O    2.014080    0.606667    2.095279
 C    0.657935    0.348396    0.112794
 O    1.382193    1.528607   -0.266982
 C    2.388837    2.940714   -1.791800
 O    3.565214    2.845401   -2.031356
 O    1.754008    4.090679   -1.582518
 O    2.114482    0.632705   -2.270420
 C    0.103061    1.907882   -2.267617
 C   -0.759131    0.683629   -1.995291
 O   -2.065204    0.958659   -2.469394
 C   -0.746191    0.351084   -0.499650
 N   -1.360331   -0.951746   -0.265306
 C    1.475238    1.718403   -1.670166
 C   -2.690277   -1.131978   -0.182199
 O   -3.507718   -0.225793   -0.321524
 C   -3.146296   -2.548874    0.127898
 O   -2.119228   -3.516354    0.151641
 H    1.187018   -3.382406    0.974633
 H    0.591238   -2.666385    3.184106
 H    1.961373   -1.822824    2.422797
 H   -0.925232   -0.884645    2.227448
 H    1.014162    0.102852    3.975854
 H    0.088333    1.325686    1.914214
 H    2.402141    1.312811    1.573526
 H    1.208102   -0.533057   -0.233801
 H    2.411930    4.794530   -1.660901
 H    3.065221    0.798725   -2.230079
 H   -0.363423    2.779953   -1.807799
 H    0.179959    2.083791   -3.341991
 H   -0.349473   -0.176949   -2.539746
 H   -2.723306    0.686703   -1.812649
 H   -1.355332    1.104665    0.007572
 H   -0.772625   -1.772381   -0.255714
 H   -3.706824   -2.508057    1.065890
 H   -3.840434   -2.841820   -0.657875
 H   -1.547038   -3.363029    0.910238
