41 
5yyb_ligand_ani-2x.xyz
 O    0.549936   -2.589858    1.017427
 C    0.960224   -1.992928    2.249197
 C    0.153066   -0.722843    2.512515
 O    0.261556   -0.391544    3.886480
 C    0.618561    0.489170    1.698237
 O    1.952920    0.724970    2.128714
 C    0.598293    0.398010    0.164978
 O    1.299004    1.586498   -0.227916
 C    2.432895    2.885090   -1.770420
 O    3.625055    2.703420   -1.847327
 O    1.874336    4.097405   -1.774159
 O    2.070724    0.589453   -2.177028
 C    0.105690    1.924007   -2.259213
 C   -0.798609    0.733722   -1.971393
 O   -2.086150    1.085276   -2.417494
 C   -0.801909    0.372196   -0.464396
 N   -1.390477   -0.944620   -0.260725
 C    1.454704    1.713950   -1.623190
 C   -2.715500   -1.171369   -0.245755
 O   -3.562440   -0.309784   -0.485673
 C   -3.141876   -2.596396    0.106037
 O   -2.088714   -3.529632    0.157168
 H    1.052403   -3.402031    0.881462
 H    0.783744   -2.680428    3.085744
 H    2.026413   -1.734590    2.216064
 H   -0.906130   -0.917117    2.323868
 H    1.141822    0.001996    3.988862
 H   -0.015460    1.342767    1.995966
 H    2.322051    1.380596    1.518361
 H    1.181532   -0.467983   -0.164344
 H    2.607306    4.732976   -1.830340
 H    3.026998    0.720114   -2.053633
 H   -0.362300    2.831843   -1.865683
 H    0.220897    2.041365   -3.340304
 H   -0.421807   -0.143746   -2.523595
 H   -2.757394    0.658408   -1.850609
 H   -1.433384    1.120035    0.033949
 H   -0.759856   -1.722453   -0.086826
 H   -3.725110   -2.556142    1.038069
 H   -3.821919   -2.925092   -0.685021
 H   -1.531094   -3.334810    0.922147
