41 
5yyb_ligand_xtb.xyz
 O    0.487186   -2.705058    0.995049
 C    0.960900   -2.040720    2.151913
 C    0.097359   -0.797817    2.431765
 O    0.099304   -0.512446    3.804487
 C    0.592761    0.449840    1.677029
 O    1.884529    0.713605    2.187161
 C    0.650713    0.358404    0.141085
 O    1.334812    1.556642   -0.234206
 C    2.298770    3.039058   -1.737442
 O    3.470847    3.064081   -2.003759
 O    1.560685    4.101285   -1.487187
 O    2.323545    0.690095   -2.141035
 C    0.188392    1.758005   -2.360734
 C   -0.566223    0.455223   -2.068269
 O   -1.803831    0.391921   -2.717994
 C   -0.722800    0.297040   -0.541866
 N   -1.408035   -0.931737   -0.249544
 C    1.530761    1.707242   -1.629888
 C   -2.715865   -0.974636    0.070439
 O   -3.415951    0.013858    0.169639
 C   -3.242690   -2.379780    0.346913
 O   -2.286744   -3.402759    0.263880
 H    1.043767   -3.473487    0.827493
 H    0.880846   -2.698650    3.026975
 H    2.007260   -1.736524    2.031644
 H   -0.939989   -1.013289    2.166132
 H    0.945592   -0.090128    4.006040
 H   -0.078318    1.284758    1.936124
 H    2.274192    1.392868    1.623422
 H    1.251012   -0.506700   -0.170032
 H    2.092339    4.915142   -1.526503
 H    3.249129    0.986949   -2.128910
 H   -0.380284    2.616116   -2.000277
 H    0.357988    1.854872   -3.432479
 H    0.020223   -0.382543   -2.463813
 H   -2.458735    0.892211   -2.213866
 H   -1.356394    1.111536   -0.163792
 H   -0.913073   -1.798070   -0.409949
 H   -3.735165   -2.360012    1.329873
 H   -4.006242   -2.607863   -0.402006
 H   -1.572576   -3.238634    0.896689
