35 
5yzc_ligand_ani-2x.xyz
 C  -21.381756  -18.955870   -3.853510
 C  -21.905086  -19.957078   -3.033068
 C  -23.173896  -20.471063   -3.238955
 C  -23.902237  -19.967135   -4.306133
 C  -23.409653  -19.012747   -5.178319
 C  -22.123239  -18.524495   -4.979853
 C  -20.037080  -18.426772   -3.463533
 C  -22.082925  -17.190189   -7.080639
 C  -21.157152  -16.247639   -7.841286
 C  -19.978629  -16.998687   -8.420926
 C  -20.210826  -18.075309   -9.278486
 C  -19.146129  -18.780331   -9.829536
 C  -17.836763  -18.425829   -9.512860
 C  -17.597775  -17.364321   -8.645840
 C  -18.666834  -16.654940   -8.102787
 N  -19.763748  -17.097678   -3.752965
 N  -25.257710  -20.479422   -4.549502
 N  -21.551434  -17.625107   -5.896106
 O  -19.205126  -19.124225   -2.912885
 O  -25.873661  -20.027448   -5.499432
 O  -25.685585  -21.327398   -3.785474
 O  -23.166546  -17.525447   -7.528278
 H  -21.286460  -20.318308   -2.218351
 H  -23.600511  -21.235585   -2.601778
 H  -24.006980  -18.661687   -6.005041
 H  -20.810489  -15.441739   -7.181797
 H  -21.764671  -15.795353   -8.629578
 H  -21.239498  -18.354770   -9.501211
 H  -19.336459  -19.611569  -10.503578
 H  -17.004115  -18.979072   -9.940761
 H  -16.577898  -17.085784   -8.391588
 H  -18.479132  -15.825611   -7.423275
 H  -18.917521  -16.772984   -3.304002
 H  -20.524598  -16.430726   -3.768317
 H  -20.579278  -17.400684   -5.725647
