35 
5yzc_ligand_xtb.xyz
 C  -21.467209  -19.833283   -4.875705
 C  -21.917732  -20.586157   -3.798225
 C  -23.185498  -20.396138   -3.284856
 C  -24.006527  -19.446844   -3.879948
 C  -23.597676  -18.707356   -4.979058
 C  -22.318863  -18.900351   -5.492822
 C  -20.065051  -20.071639   -5.355957
 C  -22.385049  -17.102878   -7.210376
 C  -21.583933  -16.680977   -8.440245
 C  -20.104707  -16.831606   -8.231649
 C  -19.407724  -17.905799   -8.774559
 C  -18.052855  -18.060228   -8.534249
 C  -17.380297  -17.145215   -7.742477
 C  -18.066443  -16.071880   -7.196698
 C  -19.419427  -15.917147   -7.438379
 N  -19.311998  -18.942917   -5.454156
 N  -25.336753  -19.237471   -3.351114
 N  -21.868749  -18.228690   -6.623999
 O  -19.639294  -21.165467   -5.641410
 O  -26.077533  -18.501093   -3.960993
 O  -25.625403  -19.818012   -2.326960
 O  -23.354308  -16.507074   -6.814855
 H  -21.254387  -21.319151   -3.366201
 H  -23.548185  -20.964552   -2.443371
 H  -24.267289  -17.986699   -5.422294
 H  -21.848330  -15.645282   -8.658347
 H  -21.919160  -17.300942   -9.275408
 H  -19.924013  -18.620730   -9.400096
 H  -17.524064  -18.895931   -8.967029
 H  -16.323044  -17.262448   -7.557320
 H  -17.544220  -15.351566   -6.584624
 H  -19.953660  -15.078969   -7.014949
 H  -18.336996  -19.039655   -5.690036
 H  -19.616367  -18.064490   -5.072148
 H  -21.008656  -18.584363   -7.024790
