66 
5yzd_ligand_xtb.xyz
 C   -1.113061   -1.825708   -1.183242
 O   -0.748096   -0.972940   -1.966181
 O   -2.316377   -2.416932   -1.199991
 C   -3.266182   -1.916129   -2.147511
 C   -4.107411   -0.825054   -1.538296
 C   -5.376558   -1.098929   -1.045151
 C   -6.134096   -0.094711   -0.465882
 C   -5.623607    1.188430   -0.362801
 C   -4.354422    1.466542   -0.842474
 C   -3.601615    0.464297   -1.428529
 N   -0.320902   -2.362355   -0.225553
 C    0.979315   -1.769632    0.029089
 C    0.794768   -0.472143    0.826790
 O    0.826522   -0.419335    2.046297
 C    1.916842   -2.725594    0.768342
 C    3.316990   -2.179711    0.679009
 C    4.095643   -2.435605   -0.442564
 C    3.825859   -1.360291    1.677141
 C    5.361366   -1.890973   -0.560733
 C    5.090151   -0.810906    1.557825
 C    5.861511   -1.076146    0.440153
 N    0.576980    0.592629    0.047817
 C    0.456074    1.941332    0.568736
 C   -1.012807    2.176477    0.951114
 O   -1.762062    2.918852    0.355613
 C    0.979003    2.927765   -0.478222
 C    2.377498    2.524908   -0.856153
 C    2.611775    1.727460   -1.968850
 C    3.448944    2.867983   -0.041392
 C    3.888881    1.281071   -2.259460
 C    4.726403    2.425259   -0.332196
 C    4.949060    1.627362   -1.441004
 N   -1.364769    1.444335    2.032398
 C   -2.745875    1.204981    2.352852
 C   -3.167993   -0.179882    1.897285
 O   -4.448718   -0.424899    2.163293
 O   -2.435376   -0.975562    1.373769
 H   -2.725418   -1.538980   -3.022142
 H   -3.878159   -2.777165   -2.425804
 H   -5.774918   -2.101176   -1.123192
 H   -7.123442   -0.314942   -0.091739
 H   -6.215360    1.968788    0.092128
 H   -3.938635    2.458913   -0.757457
 H   -2.612782    0.681455   -1.802364
 H   -0.786971   -2.826667    0.538884
 H    1.404521   -1.520355   -0.949960
 H    1.857902   -3.711911    0.305676
 H    1.600025   -2.793453    1.810154
 H    3.707582   -3.070267   -1.226977
 H    3.222043   -1.146761    2.546089
 H    5.958349   -2.102603   -1.435946
 H    5.474512   -0.174085    2.341001
 H    6.850419   -0.651314    0.350419
 H    0.364265    0.442536   -0.931781
 H    1.068692    1.986276    1.477532
 H    0.956978    3.932477   -0.054911
 H    0.314882    2.906881   -1.343406
 H    1.790579    1.455912   -2.617226
 H    3.279144    3.488000    0.827628
 H    4.055860    0.659066   -3.126544
 H    5.550234    2.700756    0.309686
 H    5.945192    1.278801   -1.667756
 H   -0.690137    0.762502    2.374236
 H   -2.923560    1.295261    3.428827
 H   -3.355771    1.947361    1.829021
 H   -4.712043   -1.294389    1.819531
