66 
5yzd_ligand_ani-2x.xyz
 C   -1.149255   -1.939984   -1.057126
 O   -0.766051   -1.117674   -1.878604
 O   -2.374270   -2.497418   -1.059590
 C   -3.290029   -2.010302   -2.060957
 C   -4.116190   -0.860814   -1.542237
 C   -5.454371   -1.038770   -1.185314
 C   -6.207140    0.026256   -0.701506
 C   -5.626012    1.283652   -0.559931
 C   -4.291212    1.470494   -0.913183
 C   -3.547894    0.408429   -1.413774
 N   -0.387564   -2.439147   -0.039694
 C    0.934538   -1.858446    0.126569
 C    0.795487   -0.527747    0.875678
 O    0.832065   -0.455267    2.106884
 C    1.916533   -2.796818    0.836383
 C    3.343031   -2.308333    0.697055
 C    4.162915   -2.782434   -0.328976
 C    3.839077   -1.319114    1.549950
 C    5.442756   -2.266547   -0.517457
 C    5.116733   -0.803569    1.363422
 C    5.920849   -1.269728    0.326126
 N    0.604218    0.546448    0.086441
 C    0.464597    1.885314    0.641937
 C   -1.001616    2.101240    1.056229
 O   -1.767643    2.794484    0.402838
 C    0.941143    2.931328   -0.363215
 C    2.360015    2.662588   -0.816241
 C    2.633293    2.234000   -2.115837
 C    3.421316    2.783247    0.083497
 C    3.934779    1.931333   -2.510773
 C    4.722807    2.485621   -0.307159
 C    4.982628    2.057268   -1.606351
 N   -1.366837    1.437978    2.191499
 C   -2.757047    1.153463    2.432951
 C   -3.137313   -0.228360    1.923262
 O   -4.444020   -0.472951    2.062677
 O   -2.361875   -1.026703    1.449096
 H   -2.717055   -1.720858   -2.946118
 H   -3.924178   -2.869504   -2.287564
 H   -5.910939   -2.021795   -1.285175
 H   -7.246021   -0.129425   -0.419523
 H   -6.212879    2.111184   -0.167143
 H   -3.816886    2.438525   -0.777643
 H   -2.510384    0.547946   -1.714590
 H   -0.918176   -2.618147    0.805980
 H    1.303116   -1.662449   -0.885423
 H    1.804626   -3.791655    0.393846
 H    1.637872   -2.858776    1.894111
 H    3.798227   -3.565350   -0.991592
 H    3.200079   -0.942987    2.344358
 H    6.065456   -2.645131   -1.324528
 H    5.487192   -0.024479    2.026865
 H    6.917920   -0.858793    0.180074
 H    0.323188    0.387780   -0.876600
 H    1.088353    1.907835    1.542804
 H    0.866847    3.918694    0.104648
 H    0.254187    2.938753   -1.215843
 H    1.816336    2.133982   -2.829382
 H    3.223379    3.109860    1.103222
 H    4.129083    1.598341   -3.527429
 H    5.535569    2.574595    0.411626
 H    6.000413    1.826015   -1.913054
 H   -0.697937    0.749984    2.531438
 H   -2.992676    1.213545    3.501378
 H   -3.367705    1.896669    1.908042
 H   -4.611807   -1.330214    1.633587
