24 
5z4o_ligand_ani-2x.xyz
 C   -8.219335  -18.562383  -22.339778
 C   -9.544104  -18.425933  -21.946600
 C   -9.939874  -18.900163  -20.697425
 C   -9.017938  -19.503114  -19.854740
 C   -7.688715  -19.635552  -20.258424
 C   -7.279891  -19.165775  -21.505064
 O   -6.855471  -20.247312  -19.352144
 C   -5.523052  -20.398682  -19.692833
 C   -5.107003  -21.560247  -20.333368
 C   -3.768251  -21.728347  -20.658315
 C   -2.844967  -20.733229  -20.334982
 C   -3.265080  -19.575943  -19.681032
 C   -4.608331  -19.411475  -19.357015
 O   -1.544777  -20.952179  -20.680499
 H   -7.903704  -18.194744  -23.313030
 H  -10.265971  -17.953531  -22.607190
 H  -10.974218  -18.799427  -20.377955
 H   -9.302334  -19.880803  -18.876711
 H   -6.247471  -19.265390  -21.826616
 H   -5.845174  -22.319544  -20.577287
 H   -3.419013  -22.623855  -21.163719
 H   -2.545609  -18.799857  -19.423525
 H   -4.957889  -18.516634  -18.850014
 H   -1.016027  -20.193983  -20.402633
