20 
5z5f_ligand_dft.xyz
 O   -3.166640   -0.220693    0.047408
 C   -2.023073    0.342853    0.643363
 C   -0.885113    0.472500   -0.354152
 O   -0.592354   -0.844562   -0.877258
 C    0.423813    1.004462    0.228615
 O    0.568923    2.369012   -0.080919
 C    1.481636    0.092784   -0.411618
 O    2.689184    0.005029    0.290594
 C    0.708326   -1.219370   -0.529211
 O    0.787390   -1.819716    0.744906
 H   -2.865734   -1.028476   -0.389951
 H   -2.302479    1.334157    1.012992
 H   -1.673313   -0.259081    1.497935
 H   -1.196097    1.096635   -1.197989
 H    0.448576    0.845249    1.318678
 H    1.418691    2.651819    0.280009
 H    1.703980    0.477572   -1.411841
 H    2.528109   -0.611412    1.020362
 H    1.070108   -1.903504   -1.303329
 H    0.342611   -2.674885    0.713309
