20 
5z5f_ligand_xtb.xyz
 O    3.083183    0.554736    0.060374
 C    2.029467   -0.362406    0.172286
 C    0.818937    0.072492   -0.658119
 O    0.346595    1.342159   -0.181666
 C   -0.360310   -0.905354   -0.580665
 O   -0.455229   -1.628157   -1.774174
 C   -1.575053    0.013596   -0.304705
 O   -2.601690   -0.585371    0.417394
 C   -0.897653    1.186027    0.424005
 O   -0.795654    0.818600    1.775264
 H    2.706271    1.440182    0.139213
 H    2.400801   -1.322119   -0.191882
 H    1.720322   -0.469837    1.224040
 H    1.118345    0.207417   -1.702957
 H   -0.235916   -1.585510    0.277663
 H   -1.265002   -2.151823   -1.751018
 H   -1.992852    0.350552   -1.258517
 H   -2.336542   -0.596200    1.347809
 H   -1.433493    2.139985    0.323260
 H   -0.274527    1.480831    2.242393
