35 
5z5v_ligand_ani-2x.xyz
 C   -8.791098    5.815952    0.574195
 C   -9.206352    4.771303    1.363220
 C  -10.557519    4.372191    1.406730
 C  -11.482382    5.040296    0.646746
 C  -11.083085    6.131782   -0.180885
 C   -9.730454    6.524225   -0.224680
 C   -9.425827    7.624488   -1.091311
 C  -10.438082    8.223626   -1.793867
 C  -11.761326    7.734018   -1.664997
 N  -12.082479    6.724550   -0.891952
 O  -12.784300    4.699453    0.651794
 N  -12.834843    8.301548   -2.363264
 C   -8.001943    8.111130   -1.265214
 N   -7.126574    7.113226   -1.865817
 C   -5.885725    6.753477   -1.437913
 N   -5.347106    5.822019   -2.186073
 C   -6.287145    5.562504   -3.153005
 C   -7.392100    6.349727   -2.977974
 C  -12.842887    9.362573   -3.241879
 O  -11.853086    9.995920   -3.554503
 C  -14.226186    9.665685   -3.786998
 H   -7.743712    6.099380    0.555919
 H   -8.483967    4.234564    1.972014
 H  -10.877655    3.544789    2.032631
 H  -10.266234    9.067176   -2.452059
 H  -13.211570    5.325220    0.035686
 H  -13.714779    7.844590   -2.170360
 H   -7.570177    8.381908   -0.297413
 H   -8.002784    9.017143   -1.884363
 H   -5.421642    7.209210   -0.569982
 H   -6.113538    4.822380   -3.924865
 H   -8.330634    6.441090   -3.506975
 H  -14.153994   10.510369   -4.470928
 H  -14.630216    8.798538   -4.319658
 H  -14.916397    9.912748   -2.973702
