35 
5z5v_ligand_aiqm1.xyz
 C   -8.773421    5.840145    0.492266
 C   -9.177108    4.824156    1.326766
 C  -10.535516    4.456359    1.442529
 C  -11.479260    5.125697    0.702854
 C  -11.092293    6.180912   -0.172753
 C   -9.733439    6.541209   -0.283475
 C   -9.431726    7.603661   -1.186919
 C  -10.442714    8.209190   -1.883244
 C  -11.774814    7.762057   -1.681484
 N  -12.095300    6.788995   -0.866260
 O  -12.791498    4.803961    0.786056
 N  -12.862539    8.332027   -2.351980
 C   -8.012143    8.091131   -1.387467
 N   -7.124246    7.054236   -1.890274
 C   -5.840119    6.840821   -1.489727
 N   -5.275276    5.840447   -2.125470
 C   -6.243372    5.380607   -2.988790
 C   -7.392498    6.116763   -2.861250
 C  -12.878040    9.369125   -3.258699
 O  -11.883320    9.960774   -3.621846
 C  -14.267700    9.691353   -3.753740
 H   -7.725977    6.089262    0.417484
 H   -8.440604    4.287270    1.909813
 H  -10.845177    3.656055    2.100792
 H  -10.243242    9.012423   -2.575612
 H  -13.246094    5.406424    0.179532
 H  -13.747736    7.911294   -2.115189
 H   -7.600329    8.448975   -0.446784
 H   -8.019756    8.931119   -2.085861
 H   -5.373405    7.443747   -0.725672
 H   -6.062034    4.549485   -3.649211
 H   -8.348669    6.055865   -3.350758
 H  -14.909086    9.973355   -2.918452
 H  -14.202481   10.511179   -4.461180
 H  -14.706870    8.818721   -4.237693
