47 
5z7j_ligand_xtb.xyz
 C   -3.530324   -0.195023    0.369730
 C   -2.306733   -1.054097    0.033720
 C   -1.761098   -1.769638    1.268238
 C   -0.422334   -2.449740    0.995603
 C    0.132204   -3.131222    2.243326
 O    0.492656   -1.436286    0.540097
 C    1.546280   -1.858205   -0.154067
 O    1.725439   -3.056239   -0.360054
 C    2.449042   -0.821945   -0.663868
 C    3.539007   -1.254333   -1.463723
 O    3.790733   -2.537436   -1.728340
 C    4.415316   -0.328460   -2.023609
 C    4.237084    1.024708   -1.809406
 O    5.067886    1.954746   -2.333701
 C    3.174525    1.459126   -1.021697
 C    2.281897    0.566934   -0.449220
 C    1.226847    1.151926    0.381611
 C    0.573320    2.256349    0.029688
 C   -0.455061    2.950263    0.873090
 C   -1.773191    2.168647    0.934781
 C   -2.376731    1.961597   -0.451361
 C   -3.645576    1.092711   -0.455428
 O   -3.985831    0.717451   -1.777037
 H   -3.514935    0.083747    1.424020
 H   -4.441724   -0.768420    0.196726
 H   -2.567326   -1.782514   -0.734281
 H   -1.509197   -0.432049   -0.367174
 H   -2.467830   -2.524527    1.615494
 H   -1.615566   -1.047055    2.074576
 H   -0.526956   -3.189953    0.192030
 H    1.072726   -3.625184    2.013326
 H   -0.574499   -3.875181    2.599354
 H    0.300301   -2.395729    3.027245
 H    3.092116   -3.082956   -1.286874
 H    5.231671   -0.704143   -2.622818
 H    5.760877    1.523096   -2.849151
 H    3.074328    2.516615   -0.841651
 H    1.017897    0.670539    1.325426
 H    0.762980    2.692206   -0.942234
 H   -0.640448    3.947912    0.471342
 H   -0.075993    3.059824    1.892320
 H   -2.484606    2.701876    1.569732
 H   -1.564441    1.203721    1.390835
 H   -1.633822    1.494896   -1.101450
 H   -2.623397    2.935185   -0.887211
 H   -4.474850    1.682919   -0.023886
 H   -3.992361    1.503038   -2.333967
