75 
5z89_ligand_dft.xyz
 C    6.441476    1.404101    0.033109
 C    4.812800    2.908490    0.768945
 C    3.567606    3.640756    0.325742
 C    1.323238    3.345571   -0.256464
 C    0.228748    2.287481   -0.340669
 C   -1.711662    3.600221    0.000177
 C   -3.148500    3.633631   -0.469569
 C   -5.049024    2.288223   -0.696696
 C   -5.521267    0.861922   -0.542971
 C   -5.682032   -0.812680    1.126920
 C   -4.320074   -1.462799    1.301519
 C   -2.409901   -2.005797   -0.018314
 C   -1.756309   -1.860102   -1.240892
 C   -0.470722   -2.354949   -1.410554
 C    0.213423   -3.001537   -0.375869
 C   -0.459175   -3.124125    0.841671
 C   -1.747441   -2.635169    1.035550
 C    1.636057   -3.545429   -0.530835
 C    2.111037   -3.522754   -1.994426
 C    1.647104   -5.033269   -0.111465
 C    2.647005   -2.813593    0.400902
 C    2.784405   -1.268506    0.475732
 C    4.072389   -0.997801    1.273505
 C    2.920789   -0.588215   -0.892603
 C    1.625847   -0.606554    1.239975
 O    5.222385    2.037957   -0.252225
 O    2.487318    2.746014    0.256199
 O   -0.957044    2.810595   -0.887350
 O   -3.706646    2.360709   -0.296538
 O   -5.609058    0.559084    0.834794
 O   -3.683117   -1.531114    0.042124
 H    7.264386    2.132394    0.112927
 H    6.393351    0.828488    0.969429
 H    6.648239    0.718634   -0.791321
 H    4.608553    2.355109    1.700105
 H    5.599682    3.651676    0.985098
 H    3.753143    4.099602   -0.658013
 H    3.351237    4.451368    1.042267
 H    1.006751    4.178859    0.394162
 H    1.503317    3.760365   -1.260798
 H    0.046656    1.857167    0.654590
 H    0.553794    1.477865   -0.999600
 H   -1.680818    3.178791    1.016456
 H   -1.328166    4.632223    0.047710
 H   -3.182758    3.938958   -1.528601
 H   -3.700232    4.389446    0.116182
 H   -5.677858    2.959821   -0.088791
 H   -5.159041    2.588149   -1.753115
 H   -4.813156    0.198165   -1.048393
 H   -6.509898    0.752026   -1.019071
 H   -6.222198   -0.904725    2.076157
 H   -6.253021   -1.357092    0.359513
 H   -4.455243   -2.471988    1.720071
 H   -3.716658   -0.868140    1.999871
 H   -2.272169   -1.355117   -2.051060
 H    0.000947   -2.222490   -2.378194
 H    0.035383   -3.596571    1.685781
 H   -2.219282   -2.754769    2.004363
 H    1.453208   -4.134952   -2.622083
 H    2.153418   -2.522240   -2.425737
 H    3.119266   -3.947007   -2.057163
 H    1.348704   -5.171877    0.932230
 H    0.961306   -5.614823   -0.737101
 H    2.653922   -5.452612   -0.224984
 H    3.636695   -3.219161    0.142738
 H    2.453175   -3.154900    1.428344
 H    4.034410   -1.468856    2.263720
 H    4.954549   -1.384117    0.747860
 H    4.207327    0.079931    1.411022
 H    3.712555   -1.051603   -1.493981
 H    1.982353   -0.642399   -1.455681
 H    3.173056    0.468863   -0.759777
 H    0.684786   -0.652698    0.686469
 H    1.466454   -1.087523    2.213255
 H    1.864271    0.449099    1.412604
