40 
5z99_ligand_aiqm1.xyz
 C   -1.189803    3.918008   -0.054026
 C   -0.550533    2.620201    0.448207
 C    0.954425    2.663881    0.537153
 C    1.506582    1.293766    0.907678
 C    0.952198    0.231586   -0.050093
 C   -0.567995    0.323381   -0.209334
 C   -1.133589   -0.467764   -1.395533
 C   -1.098789   -1.998212   -1.364433
 C   -1.912568   -2.642839   -0.248191
 C    2.470385   -1.706239    0.219628
 C    2.559319   -3.139610    0.677811
 N    1.274010   -1.110730    0.420200
 O   -2.220487    4.346481    0.398591
 O   -0.506328    4.491086   -1.040850
 O   -1.097180    2.320682    1.697260
 O    2.917736    1.382232    0.865859
 O   -0.965369    1.667732   -0.518886
 O   -2.510358   -0.145170   -1.567682
 O   -1.608933   -2.456282   -2.604748
 O   -1.217069   -2.495655    0.997969
 O    3.423227   -1.115368   -0.281160
 H    1.355620    2.951900   -0.435266
 H    1.266992    3.406974    1.272952
 H    1.185527    1.032668    1.925488
 H    1.431851    0.386443   -1.022002
 H   -1.045457    0.016290    0.727437
 H   -0.575257   -0.159214   -2.285657
 H   -0.068621   -2.347220   -1.302328
 H   -2.024551   -3.700823   -0.490584
 H   -2.898975   -2.174327   -0.203518
 H    2.989598   -3.162644    1.678910
 H    3.226886   -3.678740    0.011304
 H    1.581272   -3.622858    0.700420
 H    0.539408   -1.638802    0.870301
 H   -0.995498    5.283590   -1.299771
 H   -1.974001    2.724637    1.733129
 H    3.286260    0.594516    0.436239
 H   -2.579415    0.812118   -1.540398
 H   -2.386354   -1.919324   -2.795777
 H   -1.793964   -2.786251    1.704103
