40 
5z99_ligand_ani-2x.xyz
 C   -1.248576    3.868997   -0.025417
 C   -0.551901    2.576318    0.415011
 C    0.948083    2.665525    0.525587
 C    1.529579    1.300313    0.866082
 C    0.988251    0.203364   -0.084535
 C   -0.529875    0.302520   -0.285460
 C   -1.093472   -0.486046   -1.479360
 C   -1.140735   -2.017831   -1.385617
 C   -1.941179   -2.534164   -0.189311
 C    2.514071   -1.715529    0.250576
 C    2.591472   -3.153281    0.713308
 N    1.313542   -1.116211    0.430973
 O   -2.356864    4.151183    0.364856
 O   -0.558407    4.625162   -0.881884
 O   -1.096321    2.214320    1.649434
 O    2.928520    1.418188    0.777419
 O   -0.896482    1.654490   -0.594798
 O   -2.446509   -0.099907   -1.686207
 O   -1.728777   -2.509738   -2.577207
 O   -1.157231   -2.414865    0.995959
 O    3.477136   -1.124179   -0.240097
 H    1.379561    3.012750   -0.418790
 H    1.218071    3.382179    1.306103
 H    1.229365    1.028390    1.892360
 H    1.492272    0.344324   -1.050495
 H   -1.048519    0.002698    0.631203
 H   -0.500289   -0.228540   -2.374480
 H   -0.128893   -2.428258   -1.349213
 H   -2.194797   -3.584890   -0.382042
 H   -2.868219   -1.949725   -0.110017
 H    2.810001   -3.187064    1.786317
 H    3.404511   -3.649626    0.180756
 H    1.650776   -3.687383    0.540241
 H    0.552678   -1.640279    0.854184
 H   -1.132556    5.377730   -1.101848
 H   -2.009160    2.551313    1.649144
 H    3.305481    0.581440    0.442524
 H   -2.476192    0.861015   -1.565839
 H   -2.516448   -1.963520   -2.723722
 H   -1.711766   -2.631083    1.754704
