28 
5z9e_ligand_ani-2x.xyz
 C   19.274327   26.976792   21.507912
 C   19.174786   25.679452   20.709063
 C   20.508784   24.940906   20.614856
 C   20.409822   23.651824   19.821087
 O   21.720095   23.066025   19.812162
 C   21.827358   21.904877   19.148136
 O   20.894057   21.372591   18.588839
 C   23.207521   21.356815   19.179657
 C   24.255757   22.005712   19.838433
 C   25.525805   21.455664   19.840063
 C   25.756042   20.245500   19.178392
 O   27.022362   19.754730   19.214626
 C   24.715925   19.589695   18.517645
 C   23.447107   20.151257   18.523249
 H   19.609652   26.781912   22.533275
 H   19.994160   27.665506   21.050413
 H   18.308536   27.489475   21.562977
 H   18.810263   25.897519   19.695172
 H   18.427664   25.018309   21.170703
 H   20.879867   24.704356   21.620268
 H   21.262734   25.584394   20.143659
 H   20.090716   23.826847   18.788131
 H   19.705947   22.943522   20.270915
 H   24.062109   22.944662   20.347986
 H   26.353597   21.943942   20.345970
 H   27.054616   18.922997   18.725686
 H   24.899077   18.647480   18.003519
 H   22.618518   19.664836   18.018505
