28 
5z9e_ligand_aiqm1.xyz
 C   19.260803   26.961229   21.505267
 C   19.172905   25.671993   20.698322
 C   20.511974   24.948031   20.622375
 C   20.429008   23.668072   19.822497
 O   21.742374   23.082821   19.823897
 C   21.836861   21.925571   19.146775
 O   20.900721   21.412587   18.580967
 C   23.208314   21.366341   19.179694
 C   24.260480   21.999364   19.850042
 C   25.527417   21.439393   19.854120
 C   25.748100   20.235428   19.182764
 O   27.010793   19.727722   19.217390
 C   24.706211   19.595851   18.511260
 C   23.441623   20.163522   18.512502
 H   19.582870   26.758014   22.528241
 H   19.981716   27.649590   21.060358
 H   18.296106   27.465863   21.549654
 H   18.824623   25.893358   19.685803
 H   18.428316   25.007259   21.144654
 H   20.865287   24.710749   21.630213
 H   21.262981   25.599807   20.166283
 H   20.123854   23.850104   18.790260
 H   19.724649   22.957730   20.259582
 H   24.077908   22.931825   20.366849
 H   26.353899   21.913129   20.366431
 H   27.033033   18.905240   18.723936
 H   24.884822   18.661017   17.992003
 H   22.619551   19.685992   17.999159
