28 
5z9e_ligand_xtb.xyz
 C   19.251948   26.957759   21.514784
 C   19.175438   25.673487   20.698428
 C   20.525951   24.964661   20.640861
 C   20.449411   23.682293   19.826325
 O   21.738968   23.075007   19.814224
 C   21.841613   21.924872   19.133078
 O   20.909307   21.415494   18.556282
 C   23.208004   21.361113   19.169536
 C   24.252123   21.986636   19.849843
 C   25.510383   21.426380   19.858102
 C   25.747494   20.228133   19.184827
 O   26.999606   19.713062   19.219300
 C   24.707012   19.600605   18.504255
 C   23.448881   20.164552   18.498325
 H   19.560169   26.743332   22.535503
 H   19.971983   27.645609   21.077452
 H   18.282500   27.448897   21.544901
 H   18.846218   25.905927   19.683490
 H   18.434942   25.003936   21.141012
 H   20.860704   24.720823   21.650825
 H   21.272013   25.622943   20.191857
 H   20.141036   23.884977   18.793877
 H   19.728121   22.978962   20.258974
 H   24.066160   22.912923   20.369548
 H   26.330245   21.895231   20.378516
 H   27.034270   18.887831   18.719443
 H   24.891007   18.670966   17.981865
 H   22.631692   19.691187   17.975866
