59 
5ze6_ligand_aiqm1.xyz
 C   15.275322    5.745953   49.871489
 O   10.076136   19.697947   43.527210
 O    8.483241   18.250455   44.067056
 O    7.553120   18.362918   41.123836
 C   10.199964   16.286974   39.802827
 C    8.993568   16.958767   39.912431
 C   11.181550   16.360604   40.792146
 C   14.423669    5.813888   48.609580
 C   14.663007    7.087055   47.808843
 C   13.820711    7.169710   46.544321
 C   14.059493    8.437590   45.735957
 C   13.211607    8.496238   44.471830
 C   13.365796    9.779965   43.656352
 C   14.799728   10.015249   43.152060
 C   15.661412   10.912468   44.056471
 C   15.653646   12.382822   43.638787
 C   14.280374   13.040416   43.659760
 C   14.335335   14.517900   43.295449
 C   12.968524   15.187510   43.284627
 C   13.056024   16.658018   42.916908
 O   11.781506   17.299372   42.964548
 C    9.495030   18.688284   43.264242
 C    8.758330   17.733063   41.046924
 C   10.936988   17.143487   41.920694
 C    9.719990   17.832865   42.054317
 H   16.338586    5.779684   49.624876
 H   15.060681    6.589516   50.530799
 H   15.088630    4.827723   50.429026
 H    8.181720   17.388836   43.756999
 H    7.535707   19.009658   41.834951
 H   10.388242   15.686913   38.922798
 H    8.233314   16.901689   39.147472
 H   12.107891   15.823905   40.671027
 H   13.364370    5.751172   48.875820
 H   14.632931    4.946642   47.976187
 H   15.723770    7.151575   47.541980
 H   14.452344    7.956157   48.442051
 H   12.759894    7.105931   46.812919
 H   14.028697    6.297864   45.914325
 H   15.119719    8.499051   45.467413
 H   13.844350    9.311724   46.362352
 H   12.159438    8.366236   44.742287
 H   13.473453    7.639332   43.838870
 H   13.035324   10.630624   44.260909
 H   12.683145    9.728108   42.803574
 H   14.772985   10.460159   42.150943
 H   15.284213    9.041074   43.028618
 H   16.695847   10.559722   44.042079
 H   15.325139   10.832570   45.094447
 H   16.062865   12.467058   42.624190
 H   16.328781   12.946682   44.289251
 H   13.835995   12.930119   44.655155
 H   13.616152   12.521738   42.960734
 H   14.799221   14.626557   42.308388
 H   14.990283   15.039099   44.002246
 H   12.502646   15.105960   44.269553
 H   12.302526   14.672426   42.586801
 H   13.519276   16.797112   41.934307
 H   13.652194   17.195566   43.651389
