41 
5zh2_ligand_dft.xyz
 C   -3.781166   -0.008084    2.805906
 C   -0.249277   -0.564811   -0.557382
 C    0.933209   -1.435703   -0.947550
 C    2.274686    0.530866   -0.238455
 C    4.538567    0.311307    0.614885
 C   -5.226628    0.202191   -0.793641
 C   -4.051446   -0.547082   -1.427315
 C    1.150417    1.385007   -0.630917
 C    2.203472   -0.868816   -0.371640
 C    3.268261   -1.667321   -0.009969
 C   -3.869943    0.306680    1.323952
 C    4.434068   -1.067979    0.490483
 C   -1.554529   -0.977862   -1.214424
 C    3.466067    1.123463    0.239193
 C   -5.237831   -0.017829    0.721310
 O   -2.856870   -0.451176    0.678381
 C   -2.751657   -0.183498   -0.710657
 O   -0.012561    0.804115   -0.953200
 O    1.225670    2.605370   -0.698669
 O    5.442380   -1.899777    0.836478
 O    3.614146    2.443838    0.350272
 H   -4.517091    0.576160    3.367377
 H   -2.783372    0.227240    3.186916
 H   -3.974602   -1.071973    2.978088
 H   -0.374910   -0.572011    0.531286
 H    0.767471   -2.457406   -0.591692
 H    1.009040   -1.478268   -2.042902
 H    5.442080    0.784675    0.987810
 H   -5.123635    1.275878   -1.002974
 H   -6.174449   -0.119216   -1.238427
 H   -4.208845   -1.630503   -1.338885
 H   -3.965867   -0.309719   -2.494190
 H    3.226621   -2.747117   -0.103473
 H   -3.661045    1.379329    1.163235
 H   -1.727189   -2.041130   -1.007967
 H   -1.462741   -0.856548   -2.300289
 H   -6.007699    0.599548    1.198891
 H   -5.471536   -1.067847    0.943291
 H   -2.554440    0.891718   -0.855042
 H    6.186986   -1.381250    1.165861
 H    2.795492    2.856300   -0.015692
