41 
5zh4_ligand_xtb.xyz
 C    4.238591   -0.232807    0.115086
 C    2.659985   -1.982185    0.909908
 C    2.399467    0.546068   -1.848806
 C    3.616855    1.219942   -1.709892
 C    0.372142   -1.704961    0.276981
 C    0.829253   -1.289212   -1.118373
 C    4.524688    0.830361   -0.739543
 C    2.096332   -0.496764   -1.004918
 C    2.996250   -0.887063   -0.003513
 C   -0.053758   -0.519007    1.152721
 C   -1.358865    0.126415    0.683323
 C   -3.619059   -0.475446    0.191667
 C   -4.152778    0.654090    1.083957
 C   -3.145881    1.797046    1.190930
 O    1.403009   -2.432570    0.945920
 C   -1.800249    1.236027    1.642941
 C   -3.666597   -0.115196   -1.297261
 O   -2.331329   -0.899948    0.608187
 O    3.486141   -2.502985    1.643225
 O    3.868883    2.245838   -2.553581
 O    5.150779   -0.587774    1.020632
 H    1.719153    0.855956   -2.625028
 H   -0.465985   -2.405626    0.218804
 H    1.023776   -2.189013   -1.711077
 H    0.048007   -0.721389   -1.619812
 H    5.476134    1.330554   -0.633309
 H    0.734132    0.236487    1.169540
 H   -0.197405   -0.897776    2.166110
 H   -1.206624    0.569720   -0.313742
 H   -4.236079   -1.370101    0.341782
 H   -4.331273    0.249687    2.082371
 H   -5.102193    1.011686    0.684247
 H   -3.031713    2.293107    0.224839
 H   -3.503597    2.540889    1.905052
 H   -1.899527    0.815214    2.645369
 H   -1.041932    2.019575    1.667773
 H   -3.191583   -0.903082   -1.877168
 H   -4.701634   -0.023434   -1.614335
 H   -3.159747    0.823471   -1.502740
 H    4.738847    2.621445   -2.368078
 H    4.815684   -1.387339    1.494411
