41 
5zh5_ligand_xtb.xyz
 C    1.985976    1.253529    1.799034
 C    2.445468    0.630193   -0.565592
 C    1.204327    1.396139   -0.911763
 C    4.776176   -0.680914    0.196028
 C    3.216703    0.002309   -1.515529
 C   -2.019193   -1.889031   -0.529659
 C   -3.014402   -1.892865    0.628121
 C   -4.040592   -0.785425    0.405956
 C   -3.326464    0.557794    0.234317
 C   -4.302789    1.680859   -0.093343
 O   -2.395396    0.504238   -0.840070
 C   -1.404714   -0.495973   -0.732402
 C   -0.351474   -0.180485    0.346189
 C    0.190900    1.249041    0.218787
 O    0.756012    1.657136    1.465629
 O    2.367185    1.443754    2.943622
 C    2.818710    0.603468    0.785728
 C    4.384490   -0.664699   -1.132229
 O    5.106097   -1.276340   -2.097363
 C    4.013226   -0.038848    1.169423
 O    4.439536   -0.062324    2.432751
 H    0.771374    1.050161   -1.848713
 H    1.459812    2.454215   -1.028625
 H    5.684819   -1.177463    0.503458
 H    2.943289    0.016059   -2.557755
 H   -1.222824   -2.614517   -0.360486
 H   -2.546343   -2.165819   -1.445075
 H   -3.510733   -2.863374    0.685240
 H   -2.495719   -1.729915    1.575029
 H   -4.614425   -0.996090   -0.499005
 H   -4.730855   -0.724716    1.248109
 H   -2.798081    0.802461    1.169768
 H   -3.763937    2.616240   -0.214863
 H   -5.030534    1.789012    0.705763
 H   -4.819675    1.458496   -1.022859
 H   -0.909652   -0.471223   -1.711244
 H    0.464588   -0.900319    0.261290
 H   -0.790043   -0.280944    1.339863
 H   -0.651887    1.931460    0.066150
 H    5.889554   -1.690701   -1.714113
 H    3.821192    0.485324    2.974431
