42 
5zla_ligand_aiqm1.xyz
 C    1.337560    0.736828    1.152225
 C    2.019488    0.898895   -0.209193
 C    1.594625   -0.734941    1.499258
 C   -2.156149    1.514346    0.260982
 C   -0.122295    1.021851   -1.225193
 C    2.880334   -1.059827    0.739183
 O    1.156513    0.402597   -1.237524
 C    2.551578    2.288080   -0.513618
 O    3.258768    2.314720   -1.729598
 O    3.110010    0.027555   -0.190605
 C    2.817406   -2.357829   -0.040099
 O    1.689185   -2.414779   -0.893491
 O    1.818323   -0.964482    2.880584
 O   -0.022431    1.136849    1.188732
 C   -0.831417    0.758537    0.092655
 O   -1.157860   -0.624918    0.188863
 C   -2.542110   -0.788745    0.530567
 C   -3.022014   -2.102435   -0.046255
 O   -3.022983   -2.104021   -1.464061
 C   -3.202353    0.459654   -0.041300
 O   -4.430547    0.805675    0.570796
 O   -2.200419    2.640794   -0.583220
 H    1.847053    1.360846    1.888548
 H    0.778136   -1.347317    1.112942
 H   -2.247299    1.798446    1.313996
 H   -0.693499    0.595737   -2.049438
 H   -0.044968    2.101192   -1.372379
 H    3.721117   -1.078667    1.439112
 H    3.188414    2.592809    0.327946
 H    1.735795    3.003859   -0.593449
 H    3.836994    1.547421   -1.728235
 H    3.744843   -2.471141   -0.614485
 H    2.736643   -3.187320    0.664291
 H    1.589198   -1.536484   -1.282518
 H    0.972411   -0.913907    3.327365
 H   -2.671263   -0.801585    1.621648
 H   -4.055591   -2.262813    0.266289
 H   -2.408998   -2.913518    0.351850
 H   -2.109595   -2.155997   -1.752779
 H   -3.310771    0.352760   -1.124399
 H   -5.133825    0.338392    0.119805
 H   -2.997805    3.123382   -0.361195
