42 
5zla_ligand_xtb.xyz
 C    1.377454    0.814424    1.194143
 C    2.019892    0.871490   -0.203876
 C    1.612811   -0.653736    1.628260
 C   -2.158488    1.530328    0.343462
 C   -0.166929    1.009000   -1.137452
 C    2.739700   -1.138799    0.701510
 O    1.111518    0.421112   -1.204588
 C    2.598417    2.252151   -0.560905
 O    3.034994    2.308695   -1.885341
 O    3.066652   -0.049870   -0.167399
 C    2.360774   -2.395260   -0.100549
 O    1.115541   -2.303432   -0.735952
 O    2.035102   -0.764552    2.962440
 O    0.042342    1.273884    1.254630
 C   -0.806759    0.801351    0.241385
 O   -1.090032   -0.570028    0.463182
 C   -2.485663   -0.828948    0.502444
 C   -2.749971   -2.105245   -0.315809
 O   -2.117840   -2.053725   -1.560814
 C   -3.154812    0.433371   -0.060444
 O   -4.415437    0.714932    0.483736
 O   -2.194957    2.665303   -0.465847
 H    1.931694    1.472066    1.873478
 H    0.702403   -1.238139    1.452119
 H   -2.326495    1.786752    1.399656
 H   -0.761464    0.509915   -1.903438
 H   -0.120853    2.082401   -1.345439
 H    3.636268   -1.346880    1.294077
 H    3.420109    2.453577    0.141888
 H    1.829666    3.019066   -0.442454
 H    3.560937    1.518643   -2.059863
 H    3.157605   -2.574662   -0.836616
 H    2.306058   -3.247457    0.580886
 H    1.079514   -1.429436   -1.164943
 H    1.317303   -0.475354    3.537215
 H   -2.808237   -0.972148    1.544968
 H   -3.822623   -2.205761   -0.503731
 H   -2.408786   -2.973074    0.261811
 H   -1.163006   -2.085202   -1.401637
 H   -3.196288    0.373646   -1.158249
 H   -5.039726    0.034755    0.208342
 H   -3.068189    3.065347   -0.369685
