49 
5zqo_ligand_xtb.xyz
 C   12.261722   69.282605   22.533137
 C   11.615273   69.923820   23.614068
 C    9.737645   71.192589   24.370504
 C   12.130697   69.806437   24.893288
 C   13.437913   70.747089   13.841620
 C   12.721686   70.492133   15.131985
 C   12.848855   69.156228   15.746084
 C   11.465810   69.888167   17.480963
 C   10.407576   70.583033   19.610148
 C   11.526293   70.664598   20.655133
 C   13.266355   69.046701   25.134815
 C   13.895375   68.403428   24.090292
 C   13.398525   68.528144   22.803584
 C   12.067554   68.367362   20.265169
 C   10.960528   68.298496   19.209433
 C   11.973895   71.430595   15.738639
 C   11.756750   72.812571   15.195694
 C   12.785928   73.139334   14.115851
 C   12.890186   71.979159   13.130332
 N   12.177859   68.960932   16.933172
 N   10.745124   69.599527   18.602760
 N   11.704021   69.360535   21.254545
 N   11.339728   71.137014   16.931731
 O   13.508832   68.266240   15.243839
 O   10.475564   70.631897   23.314350
 H    9.416556   70.430817   25.087894
 H   10.304451   71.969439   24.895148
 H    8.859676   71.642289   23.907959
 H   11.644897   70.292992   25.724216
 H   13.351318   69.854572   13.218670
 H   14.503515   70.877068   14.055527
 H   10.227406   71.567504   19.177905
 H    9.489562   70.250441   20.103057
 H   11.260960   71.386022   21.424876
 H   12.455761   70.995802   20.156906
 H   13.645255   68.962999   26.141831
 H   14.779425   67.809690   24.266281
 H   13.913244   68.035463   21.994155
 H   13.015020   68.608516   19.758032
 H   12.156708   67.395005   20.749864
 H   10.021997   67.991436   19.677810
 H   11.240004   67.602969   18.420012
 H   11.813812   73.542693   16.008893
 H   10.747691   72.869362   14.772136
 H   13.760273   73.302778   14.580577
 H   12.498486   74.057754   13.600590
 H   11.900029   71.760425   12.724770
 H   13.542879   72.249267   12.298909
 H   10.724382   71.829261   17.330045
