47 
5zqp_ligand_aiqm1.xyz
 C    2.122042  -12.053163   -7.119321
 C    1.901467  -11.353737   -5.804788
 C    1.836670  -10.010259   -5.466624
 C    1.601116   -9.662357   -4.131808
 C    1.432309  -10.646155   -3.159928
 C    1.492783  -12.005347   -3.486154
 C    3.374446  -12.060491  -15.561251
 C    3.190847  -12.099244  -14.061376
 C    1.858072  -11.828230  -13.483904
 C    2.768641  -12.113532  -11.353772
 C    3.708719  -12.414481   -9.094246
 C    3.499376  -11.744668   -7.736245
 C    1.727275  -12.309904   -4.810544
 C    2.058201  -13.517911   -6.662441
 C    1.025536  -11.740671   -8.156273
 C    1.290924  -12.423511   -9.486483
 C    4.219529  -12.385139  -13.236275
 C    5.616258  -12.700497  -13.688897
 C    5.657880  -13.003854  -15.185460
 C    4.844662  -11.968153  -15.954449
 N    1.736743  -11.843009  -12.098497
 N    2.621733  -12.069826   -9.991651
 N    4.007284  -12.385882  -11.860768
 O    0.899788  -11.597758  -14.207634
 O    1.817864  -13.595664   -5.307630
 O    2.199018  -14.509638   -7.313396
 H    1.962346   -9.239912   -6.217884
 H    1.547579   -8.619125   -3.855799
 H    1.249211  -10.359514   -2.134149
 H    1.362237  -12.783956   -2.749599
 H    2.804279  -11.224192  -15.962690
 H    2.930547  -12.962689  -15.992888
 H    3.794846  -13.499636   -8.978457
 H    4.649416  -12.031710   -9.490902
 H    4.298742  -12.043709   -7.053510
 H    3.567777  -10.661518   -7.871530
 H    1.006537  -10.657955   -8.307514
 H    0.047793  -12.040185   -7.773344
 H    0.571279  -12.109309  -10.230237
 H    1.226693  -13.511375   -9.381741
 H    6.000042  -13.546949  -13.111488
 H    6.254074  -11.839657  -13.459466
 H    5.233423  -13.995225  -15.366268
 H    6.693854  -13.029052  -15.524844
 H    5.230533  -10.968453  -15.726795
 H    4.954903  -12.116153  -17.028879
 H    4.755803  -12.669647  -11.259003
