51 
5zqq_ligand_aiqm1.xyz
 C    2.974502  -11.803507   -7.832120
 C    3.125663  -10.296161   -7.511774
 C    2.960740   -8.813245   -5.526583
 C    2.642661  -11.317636   -5.525003
 C    4.071648  -12.562002  -16.267543
 C    3.915958  -12.439320  -14.769104
 C    2.566703  -12.486800  -14.167838
 C    3.537237  -12.200187  -12.064273
 C    2.146256  -11.556648  -10.218183
 C    1.825525  -12.062691   -8.823065
 C    2.382234  -11.530042   -4.182099
 C    2.151165  -12.850136   -3.773985
 C    2.182977  -13.899565   -4.685128
 C    2.448293  -13.658093   -6.039892
 C    2.680834  -12.360559   -6.457620
 C    4.274196  -12.369636   -8.427516
 C    4.552513  -11.876047   -9.846762
 C    4.987420  -12.272733  -13.965911
 C    6.409138  -12.187659  -14.442500
 C    6.539501  -12.660674  -15.889013
 C    5.429541  -12.056731  -16.742653
 N    2.467341  -12.369281  -12.786933
 N    3.407359  -12.132176  -10.702879
 N    2.903417  -10.106261   -6.169909
 N    4.795023  -12.142741  -12.594807
 O    1.575380  -12.625559  -14.871257
 O    3.404832   -9.413180   -8.297269
 H    2.002406   -8.575736   -5.062910
 H    3.739146   -8.801014   -4.761838
 H    3.189563   -8.080223   -6.297905
 H    3.257379  -12.022666  -16.748404
 H    3.947901  -13.611989  -16.550951
 H    2.227177  -10.465524  -10.222393
 H    1.372981  -11.843889  -10.918612
 H    0.903734  -11.598219   -8.465579
 H    1.654590  -13.142593   -8.866365
 H    2.354711  -10.714164   -3.473270
 H    1.943352  -13.051155   -2.731754
 H    1.999679  -14.910555   -4.350235
 H    2.466172  -14.482277   -6.743762
 H    4.183486  -13.459996   -8.455656
 H    5.126692  -12.129630   -7.786187
 H    5.413916  -12.439436  -10.210563
 H    4.809579  -10.812600   -9.839783
 H    7.047580  -12.781687  -13.781466
 H    6.737365  -11.145982  -14.352999
 H    6.460000  -13.750927  -15.922070
 H    7.525756  -12.397126  -16.272894
 H    5.470531  -10.964871  -16.663702
 H    5.576430  -12.306927  -17.793779
 H    5.585715  -11.940644  -12.014903
