51 
5zqq_ligand_xtb.xyz
 C    3.103567  -11.222837   -8.158410
 C    3.052792   -9.983295   -7.257288
 C    2.646589   -9.491111   -4.872792
 C    2.662905  -11.773941   -5.906179
 C    3.841797  -13.619049  -15.389755
 C    3.826850  -12.759935  -14.162947
 C    2.526342  -12.485380  -13.521892
 C    3.650217  -11.195265  -11.932320
 C    2.302549  -10.096873  -10.278629
 C    1.998412  -11.163367   -9.229309
 C    2.402640  -12.560711   -4.801012
 C    2.335847  -13.934501   -4.991457
 C    2.521628  -14.495002   -6.243668
 C    2.781658  -13.694313   -7.350123
 C    2.854092  -12.331269   -7.173744
 C    4.477649  -11.345289   -8.838083
 C    4.656575  -10.245936   -9.890195
 C    4.948374  -12.238118  -13.635172
 C    6.319417  -12.435286  -14.212478
 C    6.329488  -13.596989  -15.203562
 C    5.148298  -13.471891  -16.161351
 N    2.551410  -11.683159  -12.402266
 N    3.603825  -10.327949  -10.880360
 N    2.782239  -10.392760   -5.984205
 N    4.871057  -11.457416  -12.497511
 O    1.480505  -12.941057  -13.945224
 O    3.222678   -8.826503   -7.579613
 H    1.650480   -9.571906   -4.433260
 H    3.396161   -9.707524   -4.108821
 H    2.795411   -8.480809   -5.252359
 H    2.981443  -13.351897  -16.006662
 H    3.697610  -14.660955  -15.086550
 H    2.322248   -9.106243   -9.819314
 H    1.555345  -10.133626  -11.069715
 H    1.037289  -10.957152   -8.756314
 H    1.934426  -12.132133   -9.727725
 H    2.254271  -12.129054   -3.823719
 H    2.133430  -14.574225   -4.145681
 H    2.461637  -15.565762   -6.363689
 H    2.919199  -14.136528   -8.325217
 H    4.540934  -12.324629   -9.319649
 H    5.269123  -11.278292   -8.088396
 H    5.646393  -10.320549  -10.343718
 H    4.576626   -9.268212   -9.408032
 H    7.037634  -12.615972  -13.406777
 H    6.621547  -11.513599  -14.722287
 H    6.250276  -14.539939  -14.658821
 H    7.272401  -13.602290  -15.753567
 H    5.180519  -12.494584  -16.647676
 H    5.210140  -14.236620  -16.937028
 H    5.709955  -11.007399  -12.165077
