52 
5zqu_ligand_aiqm1.xyz
 O  -62.925301   15.010326  141.273567
 C  -62.812158   15.554355  140.036828
 O  -63.449170   16.529164  139.748436
 C  -61.883917   14.866628  139.087018
 C  -62.100171   15.063736  137.733829
 C  -60.804396   14.067622  139.550357
 C  -59.936132   13.438101  138.686013
 C  -60.184943   13.621480  137.318464
 C  -61.233950   14.415750  136.850602
 N  -61.197641   14.407204  135.473539
 N  -60.212158   13.669731  135.095542
 N  -59.580741   13.171084  136.190605
 C  -58.434193   12.340479  136.066055
 C  -57.268066   12.891081  135.555912
 C  -56.099985   12.137091  135.423851
 C  -54.845714   12.812828  134.865644
 C  -55.161156   13.646599  133.615124
 C  -54.266902   13.752738  135.939497
 C  -53.805854   11.758155  134.466153
 C  -53.629605   10.688415  135.528923
 C  -54.907890    9.870022  135.753152
 C  -55.119539    8.886026  134.588172
 C  -54.713457    9.062556  137.045521
 C  -56.127013   10.790293  135.845787
 C  -57.331325   10.261093  136.324640
 C  -58.502318   11.001635  136.443171
 C  -59.785503   10.392738  136.933976
 H  -62.458902   14.170116  141.298226
 H  -62.909051   15.696832  137.397241
 H  -60.620930   13.981043  140.615919
 H  -59.105802   12.842378  139.041049
 H  -57.303061   13.928629  135.244030
 H  -55.648423   13.035275  132.852672
 H  -55.800158   14.502824  133.832160
 H  -54.226348   14.032486  133.200292
 H  -54.995740   14.521252  136.211886
 H  -53.992951   13.213473  136.849122
 H  -53.374086   14.254155  135.556039
 H  -52.857268   12.262210  134.261007
 H  -54.123630   11.298465  133.524566
 H  -53.344048   11.152598  136.478972
 H  -52.819436   10.003774  135.262688
 H  -55.222369    9.406376  133.633923
 H  -54.269966    8.200953  134.515960
 H  -56.024031    8.291382  134.742348
 H  -53.793950    8.476758  136.964060
 H  -54.619534    9.727659  137.907664
 H  -55.530551    8.365459  137.234031
 H  -57.375429    9.214612  136.603214
 H  -60.056048   10.763015  137.926344
 H  -60.608839   10.641452  136.262833
 H  -59.697951    9.308998  136.991678
