52 
5zqu_ligand_ani-2x.xyz
 O  -63.192989   14.682183  141.272261
 C  -62.886009   15.391613  140.163211
 O  -63.384863   16.470573  139.978574
 C  -61.915876   14.763631  139.208544
 C  -61.962002   15.200778  137.899452
 C  -60.952258   13.813252  139.632386
 C  -60.049320   13.257343  138.749026
 C  -60.141360   13.670552  137.414334
 C  -61.054695   14.637452  136.994189
 N  -60.844830   14.882007  135.653019
 N  -59.886098   14.136566  135.248793
 N  -59.444072   13.365645  136.277054
 C  -58.369779   12.459796  136.080119
 C  -57.195451   12.959102  135.540750
 C  -56.066367   12.155300  135.372739
 C  -54.827812   12.770848  134.720913
 C  -55.201199   13.442113  133.388602
 C  -54.245413   13.845587  135.658055
 C  -53.770164   11.690702  134.421501
 C  -53.611030   10.691041  135.563252
 C  -54.904799    9.902393  135.848508
 C  -55.102072    8.798160  134.793244
 C  -54.744293    9.233607  137.224022
 C  -56.121601   10.831042  135.840323
 C  -57.351934   10.323758  136.273628
 C  -58.505067   11.094421  136.380694
 C  -59.827060   10.465930  136.744776
 H  -62.835862   13.786275  141.204442
 H  -62.674409   15.960696  137.602110
 H  -60.881797   13.531926  140.680867
 H  -59.313989   12.525312  139.063409
 H  -57.182328   14.007380  135.252563
 H  -55.649736   12.719194  132.697312
 H  -55.915730   14.258351  133.528877
 H  -54.305275   13.860063  132.914336
 H  -54.999826   14.601887  135.899424
 H  -53.895220   13.418124  136.604688
 H  -53.398604   14.351355  135.179758
 H  -52.815565   12.185558  134.202739
 H  -54.059211   11.157495  133.504684
 H  -53.313490   11.222761  136.478491
 H  -52.806619    9.977545  135.344245
 H  -55.156526    9.206118  133.777480
 H  -54.271222    8.083773  134.828774
 H  -56.030205    8.245698  134.973485
 H  -53.838842    8.615141  137.236318
 H  -54.657415    9.985539  138.016734
 H  -55.590428    8.585312  137.468290
 H  -57.426522    9.270172  136.531975
 H  -60.190241   10.805453  137.719422
 H  -60.598121   10.725756  136.011807
 H  -59.732106    9.376818  136.784101
