57 
5zr3_ligand_ani-2x.xyz
 O   26.978303   18.186644    7.044083
 C   27.358656   19.082189    7.776890
 N   26.487597   19.984070    8.335847
 C   28.801395   19.253935    8.141067
 C   29.214508   19.916962    9.295943
 C   30.561110   20.069247    9.619586
 C   30.937532   20.850482   10.850504
 C   29.757513   18.702407    7.292318
 C   31.104085   18.847464    7.578582
 C   31.505071   19.514342    8.737199
 N   32.887256   19.588530    9.042351
 N   33.361485   19.192463   10.251378
 C   34.673902   19.300187   10.214876
 C   35.492787   18.949769   11.423498
 C   35.029753   19.737829   12.650821
 C   35.443858   17.443188   11.687819
 C   35.110342   19.779129    8.938419
 C   33.912221   19.978677    8.217599
 N   33.803786   20.501195    6.993636
 C   34.967957   20.846919    6.448388
 C   36.228376   20.680360    7.046913
 C   36.322673   20.106470    8.304457
 N   37.583525   19.843911    8.905470
 C   38.162829   18.616581    9.081490
 N   39.327620   18.689448    9.666911
 C   38.479670   20.759858    9.419231
 C   39.544708   20.035003    9.890328
 C   40.751570   20.523242   10.538667
 C   41.846027   19.764675   11.029021
 N   42.779876   20.534443   11.562196
 C   41.108498   21.829265   10.824368
 N   42.313167   21.785849   11.428321
 C   43.100198   22.895540   11.914902
 H   25.545576   19.942236    7.974454
 H   26.820407   20.892481    8.620031
 H   28.469688   20.305841    9.988840
 H   30.043672   21.292144   11.302986
 H   31.429720   20.210397   11.588867
 H   31.638562   21.656148   10.609172
 H   29.424430   18.163683    6.411294
 H   31.860150   18.443993    6.911596
 H   36.526723   19.236027   11.198010
 H   35.105407   20.815734   12.474873
 H   33.988914   19.499146   12.895925
 H   35.653040   19.486521   13.516801
 H   34.413753   17.114270   11.863358
 H   35.843616   16.877978   10.838047
 H   36.043364   17.195031   12.571438
 H   34.913094   21.286349    5.456499
 H   37.122788   20.984131    6.509858
 H   37.667941   17.707168    8.758463
 H   38.254741   21.817390    9.416822
 H   41.970469   18.689248   11.004545
 H   40.604267   22.771675   10.645693
 H   43.264496   22.792254   12.989910
 H   44.064339   22.921354   11.401984
 H   42.556487   23.820727   11.716255
