57 
5zr3_ligand_xtb.xyz
 O   27.207184   18.816818    6.244188
 C   27.495552   19.409103    7.262471
 N   26.562042   20.066490    7.998313
 C   28.885924   19.465224    7.798509
 C   29.167072   19.566952    9.155734
 C   30.468148   19.600569    9.637447
 C   30.702827   19.717605   11.110691
 C   29.941585   19.382266    6.896431
 C   31.243038   19.419734    7.347478
 C   31.515924   19.530888    8.709167
 N   32.856776   19.561281    9.117075
 N   33.253605   19.112382   10.319308
 C   34.554094   19.232405   10.421643
 C   35.244944   18.852940   11.694635
 C   34.616706   19.613612   12.864589
 C   35.129770   17.343585   11.918839
 C   35.079316   19.794496    9.220245
 C   33.929185   20.005521    8.406072
 N   33.915553   20.583594    7.210628
 C   35.083734   20.995696    6.769426
 C   36.289790   20.832195    7.452732
 C   36.311732   20.204454    8.689622
 N   37.524516   19.986759    9.343497
 C   37.973033   18.813961    9.879991
 N   39.181423   18.912503   10.335018
 C   38.559475   20.879047    9.470705
 C   39.573056   20.206481   10.106133
 C   40.870770   20.686276   10.503567
 C   41.881600   19.959362   11.165370
 N   42.942368   20.709966   11.373083
 C   41.422660   21.944834   10.332719
 N   42.658125   21.907114   10.867872
 C   43.617331   22.970533   10.931420
 H   25.619643   20.097247    7.646141
 H   26.811619   20.675997    8.755315
 H   28.358460   19.594742    9.872640
 H   29.775452   19.959178   11.624693
 H   31.090275   18.780642   11.504645
 H   31.439249   20.488861   11.325467
 H   29.722429   19.283642    5.844882
 H   32.062321   19.368796    6.649946
 H   36.301890   19.126290   11.626713
 H   34.703909   20.687836   12.714024
 H   33.563984   19.358539   12.948525
 H   35.120535   19.352753   13.791973
 H   34.082079   17.061914   11.985269
 H   35.582647   16.791833   11.097722
 H   35.633221   17.062340   12.840278
 H   35.068847   21.475737    5.800947
 H   37.210905   21.171093    7.005593
 H   37.391234   17.914520    9.866661
 H   38.473455   21.894573    9.143863
 H   41.851725   18.937118   11.480449
 H   41.030570   22.833487    9.880559
 H   44.502687   22.584931   11.432401
 H   43.886973   23.309052    9.928838
 H   43.220534   23.816435   11.496638
