66 
5zty_ligand_aiqm1.xyz
 C    8.820809    2.269136  -58.870866
 C    8.949483    3.383040  -59.914215
 C    8.267217    4.650371  -59.382429
 C   10.433448    3.673078  -60.177753
 C   11.114196    4.118216  -58.877416
 C   10.977960    3.005382  -57.836089
 C   10.428973    5.384688  -58.349236
 C    8.944982    5.099034  -58.080960
 C    8.816005    3.984258  -57.038535
 C    9.500093    2.706157  -57.559124
 N    9.448875    1.633339  -56.555142
 C    8.317723    1.099049  -56.052424
 O    7.182714    1.436038  -56.369981
 C    8.570947    0.022489  -55.057726
 C    7.612960   -0.715932  -54.334050
 C    6.126468   -0.548973  -54.350804
 N    9.814683   -0.377740  -54.776458
 N    9.682677   -1.351611  -53.874150
 C   10.849274   -2.142242  -53.498838
 C   10.891530   -3.478749  -54.230309
 C   10.914557   -3.327860  -55.746490
 C   11.021735   -4.668690  -56.460245
 C   11.056956   -4.528763  -57.966261
 O   12.265401   -3.855088  -58.308821
 C    8.370902   -1.602683  -53.585437
 C    7.929550   -2.634125  -52.629007
 C    8.400022   -2.639734  -51.311196
 C    7.972172   -3.612355  -50.412496
 C    7.071546   -4.594133  -50.817996
 C    6.592938   -4.590727  -52.125583
 C    7.014622   -3.615129  -53.025625
 H    9.301784    1.350443  -59.228352
 H    7.772933    2.050880  -58.666201
 H    8.467991    3.066763  -60.845063
 H    7.208738    4.448664  -59.196220
 H    8.325950    5.448679  -60.129659
 H   10.533028    4.454691  -60.937556
 H   10.923914    2.773381  -60.563977
 H   12.175506    4.314064  -59.058334
 H   11.460845    3.301561  -56.897827
 H   11.463920    2.089784  -58.191805
 H   10.528464    6.194612  -59.078803
 H   10.916171    5.711921  -57.424860
 H    8.460386    6.005635  -57.705324
 H    7.768188    3.763412  -56.837169
 H    9.293464    4.281403  -56.097082
 H   10.317171    1.254559  -56.211088
 H    5.844007    0.406539  -53.902664
 H    5.758999   -0.530241  -55.375768
 H    5.628074   -1.349243  -53.801978
 H   10.843435   -2.290158  -52.420217
 H   11.712173   -1.532172  -53.759319
 H   10.030250   -4.083444  -53.926472
 H   11.785730   -4.012412  -53.899875
 H   11.753002   -2.693223  -56.040691
 H   10.010713   -2.811218  -56.083404
 H   10.169459   -5.301692  -56.193512
 H   11.928070   -5.191568  -56.138638
 H   10.188981   -3.954296  -58.308788
 H   11.022633   -5.515433  -58.438786
 H   12.256585   -3.669122  -59.248631
 H    9.092478   -1.873675  -50.984050
 H    8.341183   -3.598460  -49.395424
 H    6.740963   -5.350810  -50.119629
 H    5.885835   -5.343871  -52.447025
 H    6.625457   -3.605098  -54.035649
