66 
5zty_ligand_xtb.xyz
 C    8.769232    2.416037  -58.889918
 C    8.873323    3.577651  -59.875562
 C    8.209965    4.816114  -59.275488
 C   10.344450    3.873457  -60.164997
 C   11.051114    4.248080  -58.863032
 C   10.950759    3.086713  -57.873817
 C   10.391428    5.489022  -58.263344
 C    8.920263    5.191464  -57.976028
 C    8.816154    4.033575  -56.986016
 C    9.479955    2.787290  -57.583202
 N    9.412636    1.679609  -56.641282
 C    8.281887    1.134429  -56.145530
 O    7.151996    1.496606  -56.431340
 C    8.561878    0.035579  -55.199355
 C    7.639106   -0.760249  -54.488588
 C    6.155725   -0.690174  -54.535639
 N    9.810613   -0.318803  -54.897139
 N    9.724185   -1.291758  -54.005186
 C   10.918089   -1.975975  -53.585448
 C   10.964062   -3.412875  -54.112242
 C   10.930608   -3.461945  -55.636802
 C   10.933575   -4.896356  -56.156972
 C   10.970196   -4.938415  -57.681428
 O   12.210067   -4.422602  -58.118227
 C    8.431286   -1.607324  -53.726496
 C    8.023206   -2.637769  -52.774820
 C    8.471241   -2.623346  -51.456247
 C    8.057589   -3.598128  -50.567580
 C    7.189636   -4.595315  -50.980513
 C    6.727958   -4.608464  -52.286123
 C    7.138476   -3.635240  -53.177946
 H    9.229188    1.518190  -59.310400
 H    7.724628    2.192779  -58.671949
 H    8.365452    3.306238  -60.807899
 H    7.157230    4.609613  -59.074018
 H    8.262442    5.647194  -59.982882
 H   10.425806    4.695299  -60.880003
 H   10.821082    2.995889  -60.608190
 H   12.107763    4.457435  -59.067036
 H   11.463598    3.344601  -56.943676
 H   11.430683    2.198296  -58.292197
 H   10.473252    6.325499  -58.961125
 H   10.901653    5.772554  -57.339802
 H    8.446144    6.079555  -57.543356
 H    7.771336    3.808082  -56.771332
 H    9.309071    4.291826  -56.045385
 H   10.275779    1.277046  -56.307844
 H    5.845735    0.331946  -54.735734
 H    5.772839   -1.312734  -55.344969
 H    5.725225   -1.037092  -53.597838
 H   10.981850   -1.979672  -52.493950
 H   11.753148   -1.399421  -53.989414
 H   10.116347   -3.970842  -53.707563
 H   11.879037   -3.882982  -53.747965
 H   11.799866   -2.942115  -56.041596
 H   10.035980   -2.951546  -56.000306
 H   10.042756   -5.423744  -55.810449
 H   11.813956   -5.418810  -55.779772
 H   10.141500   -4.340794  -58.088140
 H   10.848262   -5.976502  -58.024517
 H   12.231673   -4.424843  -59.079953
 H    9.125936   -1.831862  -51.120688
 H    8.409136   -3.576417  -49.546357
 H    6.868973   -5.356055  -50.284465
 H    6.044978   -5.380014  -52.610291
 H    6.784937   -3.646885  -54.198133
