68 
5zwi_ligand_xtb.xyz
 O   -7.184066    0.644167    0.201092
 C   -7.231527   -0.698540   -0.247969
 C   -7.057888   -0.804448   -1.743433
 C   -5.728233   -0.275116   -2.216408
 C   -4.615600   -1.091433   -1.533736
 C   -4.758859   -0.974661   -0.047295
 C   -3.855206   -0.453268    0.791008
 C   -2.550338    0.051081    0.443464
 C   -1.651873    0.584627    1.280191
 C   -7.968750   -1.347747   -2.534208
 C   -0.301231    1.068854    0.850030
 C    0.824647    0.267703    1.551021
 C    0.681848    0.493695    3.058033
 C   -0.708873    0.084649    3.546356
 C   -1.827909    0.778584    2.760822
 C    0.109370    1.046277   -0.617583
 C    1.639076    1.189621   -0.560281
 C    2.068750    0.912636    0.902904
 C    0.725365   -1.221923    1.213500
 C    3.389936    0.139322    0.938344
 C    3.926406   -0.116723    2.351656
 O    4.453288    2.164068    0.181008
 C    4.472301    0.951426    0.230251
 C    5.564622    0.154276   -0.337397
 C    6.595258    0.733125   -0.976586
 C    7.693703    0.023276   -1.565007
 C    8.705815    0.627916   -2.193992
 C    9.859546   -0.074606   -2.813102
 O   -5.534270   -0.354110   -3.609397
 C   -6.090691   -1.459393    0.448623
 H   -7.887306    1.141040   -0.229797
 H   -8.195732   -1.149310    0.041434
 H   -5.633504    0.771982   -1.878642
 H   -4.725976   -2.132940   -1.848464
 H   -3.656906   -0.727305   -1.895246
 H   -4.123261   -0.415135    1.837929
 H   -2.286378   -0.007073   -0.601980
 H   -8.898686   -1.729925   -2.147217
 H   -7.811894   -1.456352   -3.594330
 H   -0.204873    2.106328    1.196892
 H    1.428874   -0.073732    3.613951
 H    0.841671    1.552866    3.276408
 H   -0.806346    0.335537    4.605452
 H   -0.825898   -0.996325    3.454298
 H   -1.791496    1.852063    2.973198
 H   -2.791386    0.407389    3.105972
 H   -0.357846    1.851385   -1.183326
 H   -0.167827    0.101276   -1.083078
 H    1.954697    2.188790   -0.855972
 H    2.121107    0.486786   -1.242112
 H    2.249209    1.871934    1.398415
 H    1.362461   -1.808302    1.872198
 H    1.029396   -1.410375    0.188341
 H   -0.298235   -1.571256    1.324203
 H    3.279396   -0.818898    0.423518
 H    4.946299   -0.496298    2.304531
 H    3.317142   -0.849733    2.871991
 H    3.932561    0.808583    2.922626
 H    5.509543   -0.920484   -0.233768
 H    6.598957    1.813214   -1.055496
 H    7.678563   -1.056355   -1.480594
 H    8.713160    1.707600   -2.273964
 H    9.779021   -1.151862   -2.690792
 H   10.791595    0.265110   -2.360917
 H    9.913034    0.158608   -3.876745
 H   -6.233608    0.141002   -4.048295
 H   -6.182071   -1.309805    1.524438
 H   -6.212175   -2.523162    0.225631
