68 
5zwi_ligand_aiqm1.xyz
 O   -7.075881    0.883968   -0.299359
 C   -7.143259   -0.518371   -0.561017
 C   -6.844769   -0.824327   -2.011507
 C   -5.438847   -0.469194   -2.451295
 C   -4.430788   -1.175323   -1.557322
 C   -4.705786   -0.868137   -0.104333
 C   -3.823569   -0.314577    0.745838
 C   -2.443049    0.080097    0.444788
 C   -1.566535    0.606544    1.321390
 C   -7.751811   -1.407421   -2.802714
 C   -0.155513    0.993276    0.969945
 C    0.890221    0.213624    1.806135
 C    0.641995    0.557627    3.280396
 C   -0.800511    0.238414    3.699230
 C   -1.838807    0.898156    2.780921
 C    0.349879    0.892586   -0.463294
 C    1.884840    0.997376   -0.304534
 C    2.195670    0.785378    1.211808
 C    0.796446   -1.308422    1.576677
 C    3.488792   -0.010419    1.409445
 C    3.855496   -0.209798    2.879370
 O    4.827306    1.921640    1.036567
 C    4.607767    0.760105    0.737622
 C    5.429029    0.073941   -0.283074
 C    6.401310    0.722252   -0.948426
 C    7.238460    0.113296   -1.967408
 C    8.202042    0.779927   -2.618653
 C    9.085996    0.190084   -3.674234
 O   -5.154999   -0.854529   -3.791444
 C   -6.114184   -1.192842    0.337145
 H   -7.744466    1.323213   -0.830171
 H   -8.145022   -0.892561   -0.323015
 H   -5.310819    0.613750   -2.337605
 H   -4.512946   -2.253403   -1.731727
 H   -3.426030   -0.876179   -1.853744
 H   -4.165967   -0.143042    1.763810
 H   -2.121492   -0.060139   -0.584187
 H   -8.732464   -1.663538   -2.419506
 H   -7.528027   -1.680234   -3.825559
 H   -0.049444    2.043839    1.287399
 H    1.343914    0.032915    3.933220
 H    0.821973    1.630723    3.416780
 H   -0.966143    0.577591    4.724981
 H   -0.959487   -0.843690    3.700518
 H   -1.783240    1.983473    2.916222
 H   -2.842680    0.602422    3.080555
 H   -0.056088    1.674786   -1.104016
 H    0.059237   -0.065612   -0.901495
 H    2.259741    1.965546   -0.639585
 H    2.393778    0.236039   -0.900873
 H    2.351986    1.768536    1.672653
 H    1.569458   -1.836291    2.141083
 H    0.927989   -1.575407    0.524594
 H   -0.163970   -1.717575    1.893157
 H    3.396000   -0.983642    0.921076
 H    4.862448   -0.621735    2.980368
 H    3.168137   -0.892426    3.375836
 H    3.829289    0.748371    3.399445
 H    5.231649   -0.972351   -0.498888
 H    6.576666    1.770737   -0.716065
 H    7.053591   -0.934673   -2.193319
 H    8.365928    1.827481   -2.372886
 H    8.846299   -0.859038   -3.849386
 H   10.134506    0.263424   -3.382564
 H    8.977636    0.733295   -4.613914
 H   -5.706944   -0.328057   -4.372973
 H   -6.282475   -0.877327    1.368915
 H   -6.279564   -2.273953    0.284801
