68 
5zwi_ligand_ani-2x.xyz
 O   -6.978543    0.536856    0.087271
 C   -7.044367   -0.803067   -0.393764
 C   -6.838378   -0.842733   -1.888836
 C   -5.482545   -0.336281   -2.328788
 C   -4.396434   -1.161810   -1.638293
 C   -4.584234   -1.080709   -0.156171
 C   -3.724461   -0.494672    0.703005
 C   -2.451763    0.114811    0.357833
 C   -1.600984    0.692439    1.235524
 C   -7.763851   -1.294906   -2.728466
 C   -0.195652    1.085681    0.894461
 C    0.845395    0.289232    1.725672
 C    0.576672    0.609295    3.203007
 C   -0.877455    0.314312    3.610346
 C   -1.901933    0.988084    2.682986
 C    0.330740    1.011777   -0.541312
 C    1.868864    1.037046   -0.371500
 C    2.159452    0.866186    1.146054
 C    0.737592   -1.216700    1.455517
 C    3.461477    0.092805    1.405631
 C    3.791001   -0.108978    2.889624
 O    4.827949    2.028350    1.081198
 C    4.610689    0.873127    0.755581
 C    5.429722    0.166552   -0.252832
 C    6.459132    0.743540   -0.897748
 C    7.259652    0.045177   -1.893207
 C    8.285600    0.607397   -2.542041
 C    9.133506   -0.070391   -3.569752
 O   -5.287836   -0.419099   -3.726622
 C   -5.924936   -1.583172    0.301852
 H   -7.635778    1.046731   -0.405462
 H   -8.020128   -1.250311   -0.145034
 H   -5.378577    0.703610   -1.980839
 H   -4.496750   -2.200463   -1.978572
 H   -3.411699   -0.811031   -1.961102
 H   -4.003748   -0.482251    1.756002
 H   -2.168140    0.099256   -0.693064
 H   -8.725669   -1.656911   -2.371989
 H   -7.585091   -1.327439   -3.799049
 H   -0.078315    2.128736    1.229865
 H    1.255012    0.050324    3.856184
 H    0.787543    1.676637    3.370332
 H   -1.043247    0.637758    4.644736
 H   -1.047208   -0.770688    3.599814
 H   -1.841555    2.077201    2.826401
 H   -2.919861    0.703628    2.962350
 H   -0.042440    1.833099   -1.161070
 H    0.021489    0.076625   -1.022294
 H    2.309045    1.970244   -0.737071
 H    2.325081    0.225971   -0.950367
 H    2.290245    1.865571    1.585932
 H    1.436489   -1.776458    2.086013
 H    0.966094   -1.463377    0.412727
 H   -0.268599   -1.590081    1.662365
 H    3.399597   -0.885134    0.911613
 H    4.788140   -0.545202    3.012638
 H    3.082346   -0.783412    3.379013
 H    3.778647    0.852892    3.415708
 H    5.165701   -0.868384   -0.461837
 H    6.713266    1.782014   -0.674336
 H    6.982055   -0.992627   -2.098931
 H    8.534107    1.645100   -2.311249
 H    8.813665   -1.103497   -3.736546
 H   10.186399   -0.082684   -3.264606
 H    9.089781    0.460762   -4.527779
 H   -5.913588    0.197236   -4.128135
 H   -6.037991   -1.489656    1.387508
 H   -6.030486   -2.643738    0.036498
