77 
5zz4_ligand_aiqm1.xyz
 C   -8.269766   11.513327  273.896949
 C   -7.424244   12.598176  273.688392
 C   -9.363306   14.000087  273.181968
 C   -9.640547   11.654661  273.773189
 O   -5.127888   14.289603  273.893916
 C   -5.832600   15.138219  273.375622
 C   -5.295787   16.488656  273.025450
 C   -4.167531   16.927633  273.712961
 C   -3.608426   18.173821  273.449806
 C   -4.152988   19.017412  272.472139
 C   -3.572932   20.394824  272.143732
 C   -3.136924   20.432524  270.669850
 C   -4.641521   21.473724  272.385035
 C   -2.353932   20.732348  273.007969
 C   -5.274486   18.551163  271.770468
 C   -5.840405   17.311625  272.040794
 N   -7.157994   14.958660  273.086956
 C   -7.972216   13.833410  273.331525
 C   -9.899739   15.323547  272.702028
 C  -10.189988   12.895981  273.440965
 C  -11.675728   12.982291  273.423663
 N  -12.251097   14.054937  273.967466
 N  -12.325437   11.927720  272.907894
 C  -13.659687   12.020529  272.965772
 N  -14.354980   13.046645  273.474457
 C  -13.594172   14.032318  273.944444
 N  -14.228189   15.131476  274.416155
 N  -14.436437   11.014243  272.482355
 C  -14.112834    9.787218  271.882667
 C  -15.181910    8.920569  271.626652
 C  -14.974416    7.692002  271.015441
 C  -13.685542    7.299943  270.643288
 C  -12.620804    8.155689  270.929834
 C  -12.814933    9.393830  271.526635
 C  -13.383068    5.965594  270.038502
 O  -12.437397    5.297526  270.430531
 N  -14.218942    5.496225  269.058317
 C  -13.924405    4.162978  268.541290
 C  -14.967913    3.800643  267.483995
 O  -16.246427    4.245068  267.888587
 C  -16.338344    5.662281  267.877593
 C  -14.987454    6.331928  268.156861
 H   -7.850876   10.551619  274.162483
 H   -6.355567   12.498529  273.802911
 H  -10.302553   10.816144  273.941468
 H   -3.733359   16.270153  274.453873
 H   -2.736225   18.478628  274.010142
 H   -2.345340   19.704037  270.484403
 H   -3.965360   20.212787  269.993452
 H   -2.754817   21.426157  270.420079
 H   -5.538487   21.300180  271.786903
 H   -4.934100   21.497104  273.436744
 H   -4.245018   22.456865  272.117150
 H   -2.604798   20.751944  274.070823
 H   -1.540770   20.019676  272.854949
 H   -1.985362   21.722580  272.733843
 H   -5.714435   19.163128  270.991867
 H   -6.687083   16.981488  271.446851
 H   -7.649947   15.779033  272.792400
 H   -9.773569   16.108120  273.453629
 H   -9.383488   15.646206  271.790552
 H  -10.955561   15.271496  272.466659
 H  -13.683682   15.768648  274.968783
 H  -15.210925   15.047790  274.599718
 H  -15.418187   11.190676  272.615331
 H  -16.184492    9.213078  271.918582
 H  -15.817437    7.031943  270.850298
 H  -11.620234    7.830519  270.679230
 H  -11.979048   10.042956  271.728392
 H  -13.952558    3.462336  269.375943
 H  -12.915653    4.123857  268.117976
 H  -15.034823    2.720621  267.369071
 H  -14.708653    4.237234  266.512281
 H  -17.070025    5.918659  268.644846
 H  -16.712124    6.006116  266.905561
 H  -14.433277    6.473552  267.220909
 H  -15.137328    7.315888  268.589287
