20 
6abp_ligand_ani-2x.xyz
 C    1.454588    0.188151   -0.208243
 C    0.243632    0.968008    0.285122
 C   -0.804508    0.022466    0.844211
 C   -1.147230   -1.033571   -0.204210
 C    0.127969   -1.688372   -0.721245
 O    2.346200    1.102550   -0.768670
 O    0.577777    1.879689    1.311457
 O   -1.997204    0.722921    1.145045
 O   -1.801871   -0.425082   -1.293927
 O    1.070475   -0.741416   -1.199336
 H    1.923107   -0.359502    0.633571
 H   -0.191192    1.480470   -0.585492
 H   -0.405671   -0.466114    1.749264
 H   -1.782204   -1.807190    0.259380
 H    0.577882   -2.298221    0.080183
 H   -0.112150   -2.346010   -1.560014
 H    2.877181    0.611437   -1.408715
 H    1.231398    2.487356    0.940326
 H   -1.728537    1.535576    1.598992
 H   -2.459442    0.166654   -0.897598
