20 
6abp_ligand_aiqm1.xyz
 C    1.487002    0.141559   -0.142425
 C    0.266557    0.961919    0.270928
 C   -0.796495    0.038462    0.826319
 C   -1.134958   -1.021884   -0.212968
 C    0.135532   -1.707219   -0.687115
 O    2.471796    0.986988   -0.659824
 O    0.588704    1.898344    1.286316
 O   -1.992432    0.737508    1.128952
 O   -1.766429   -0.437771   -1.337039
 O    1.123667   -0.782223   -1.137317
 H    1.910254   -0.372106    0.734567
 H   -0.121556    1.467985   -0.619671
 H   -0.405954   -0.448584    1.728527
 H   -1.788077   -1.771143    0.247132
 H    0.543043   -2.322899    0.124578
 H   -0.093471   -2.338516   -1.542259
 H    2.442303    0.884568   -1.613710
 H    1.325874    2.425758    0.969804
 H   -1.741322    1.521118    1.623779
 H   -2.453839    0.137937   -0.988474
