12 
6ajr_ligand_ani-2x.xyz
 N   -9.591794   -6.462055   -5.339469
 C  -10.407069   -6.516259   -6.461689
 O  -11.473485   -5.943738   -6.525279
 N   -9.876167   -7.282705   -7.479170
 C   -8.656348   -7.978526   -7.494712
 O   -8.325785   -8.615570   -8.473389
 C   -7.890236   -7.843430   -6.256536
 C   -8.380686   -7.104121   -5.248960
 H   -9.951399   -5.909102   -4.576409
 H  -10.438702   -7.350234   -8.318141
 H   -6.936954   -8.350415   -6.187338
 H   -7.854774   -6.970246   -4.308609
