33 
6ajx_ligand_aiqm1.xyz
 C  -10.193357   11.501068   -3.855919
 C  -11.251146   10.686665   -3.454450
 C  -10.974343    9.571935   -2.682210
 C   -9.674370    9.214463   -2.291625
 C   -8.630361   10.064272   -2.702684
 C   -8.893310   11.197809   -3.477282
 C   -9.425819    7.977118   -1.498070
 C  -10.629328    7.336498   -0.827288
 C  -10.224100    6.200123    0.095807
 O   -7.361767    9.797239   -2.316219
 C  -11.367923    5.526599    0.814981
 C  -11.085409    4.516839    1.745581
 C  -12.087517    3.852652    2.437084
 C  -13.418416    4.191948    2.207835
 C  -13.727655    5.188846    1.293190
 C  -12.709397    5.848331    0.605085
 O   -8.326064    7.478063   -1.393407
 O  -14.376062    3.512458    2.910505
 O  -10.500433   12.585334   -4.616223
 H  -12.258368   10.936524   -3.751653
 H  -11.800569    8.946031   -2.375041
 H   -8.069893   11.838994   -3.785453
 H  -11.300222    6.968462   -1.611693
 H  -11.186464    8.104463   -0.279887
 H   -9.511103    6.573698    0.835767
 H   -9.673051    5.451618   -0.479803
 H   -6.786481   10.481100   -2.667425
 H  -10.053199    4.244551    1.932905
 H  -11.854103    3.075406    3.151726
 H  -14.763130    5.457351    1.111522
 H  -12.982204    6.622432   -0.101261
 H  -15.239033    3.845466    2.655611
 H   -9.699204   13.064543   -4.836307
