37 
6ak4_ligand_dft.xyz
 C    3.287281   -0.695714   -0.029477
 C    1.937271   -1.021601    0.069320
 C    3.713859    0.634207   -0.000841
 C    1.381263    1.311403    0.238920
 C    0.963765   -0.036138    0.208362
 C   -0.420467   -0.485700    0.309542
 C   -1.652540    1.617927    0.462080
 N   -1.701902    2.775591    0.548189
 C   -2.849880   -0.639530    0.529861
 O   -2.806084   -1.633533    1.241891
 C   -4.010465    0.701554   -1.242453
 C   -5.169975   -1.081934    0.050059
 C   -3.521133    0.107161   -2.560955
 O    5.408231   -1.585127    0.100624
 N    4.238467   -1.801131   -0.159433
 O    3.787288   -2.882866   -0.511338
 O    4.988293    1.007894   -0.117613
 C    2.714878    1.626378    0.133170
 O    3.214493    2.894994    0.142629
 C   -1.586150    0.193949    0.381033
 N   -3.971912   -0.261048   -0.141808
 C   -6.090051   -0.498817    1.117221
 H    1.668188   -2.070439    0.031414
 H    0.662122    2.115061    0.347372
 H   -0.540749   -1.566645    0.332003
 H   -5.050184    1.030179   -1.333640
 H   -3.440268    1.595748   -0.991895
 H   -4.851080   -2.086632    0.330427
 H   -5.686735   -1.149003   -0.913222
 H   -2.468568   -0.184047   -2.484653
 H   -4.101527   -0.780750   -2.832395
 H   -3.616334    0.839724   -3.368702
 H    5.009456    1.978505   -0.097484
 H    2.503355    3.539393    0.241755
 H   -5.575507   -0.472365    2.081919
 H   -6.398307    0.520654    0.861267
 H   -6.990160   -1.113023    1.222619
