37 
6ak4_ligand_xtb.xyz
 C   28.473909    7.932060  -27.691620
 C   29.543424    8.014415  -28.576640
 C   27.581848    6.855721  -27.740891
 C   28.872504    5.953503  -29.595567
 C   29.762589    7.037788  -29.540480
 C   30.895197    7.186080  -30.428439
 C   30.505449    5.377157  -32.049298
 N   29.979678    4.476743  -32.535929
 C   32.509193    6.771223  -32.251462
 O   33.566509    6.554172  -31.696079
 C   31.138246    7.647028  -34.107241
 C   33.614439    7.563754  -34.232688
 C   30.686363    9.042413  -33.678140
 O   27.571863    8.811828  -25.787096
 N   28.315445    8.988489  -26.721257
 O   28.959520   10.000928  -26.909824
 O   26.535329    6.750760  -26.924265
 C   27.813564    5.865210  -28.723456
 O   26.916304    4.836337  -28.734461
 C   31.208179    6.473482  -31.527426
 N   32.396428    7.272719  -33.494991
 C   33.946805    6.451560  -35.221758
 H   30.199948    8.867210  -28.491672
 H   29.020622    5.170468  -30.322617
 H   31.568243    7.995283  -30.172388
 H   31.277490    7.621638  -35.190043
 H   30.367917    6.914286  -33.856081
 H   34.421550    7.657493  -33.502694
 H   33.490143    8.517209  -34.752255
 H   30.491276    9.071078  -32.608619
 H   31.451976    9.779382  -33.908578
 H   29.774985    9.313227  -34.203966
 H   26.047222    5.939393  -27.134596
 H   27.146074    4.203366  -29.424521
 H   34.091344    5.514952  -34.689638
 H   33.146225    6.319211  -35.946460
 H   34.861501    6.694436  -35.755161
