37 
6ak4_ligand_ani-2x.xyz
 C   28.731993    7.645906  -27.261793
 C   29.708673    7.854058  -28.219028
 C   27.662005    6.776096  -27.494363
 C   28.629388    6.277171  -29.680361
 C   29.683257    7.174878  -29.445417
 C   30.760556    7.467106  -30.369639
 C   30.216083    6.081895  -32.315688
 N   29.562831    5.274784  -32.835933
 C   32.253161    7.549034  -32.308797
 O   33.146350    8.012645  -31.608157
 C   31.306843    7.347032  -34.651942
 C   33.736690    7.648606  -34.209947
 C   30.207258    8.398901  -34.540854
 O   28.275840    7.946737  -25.017539
 N   28.850470    8.382455  -25.994777
 O   29.543024    9.387888  -26.006766
 O   26.664058    6.585117  -26.621935
 C   27.647683    6.099300  -28.726574
 O   26.578325    5.256358  -28.891966
 C   31.007922    7.049932  -31.641596
 N   32.386011    7.483920  -33.674887
 C   34.352333    6.323199  -34.642802
 H   30.498530    8.561597  -27.997151
 H   28.564773    5.707244  -30.601258
 H   31.508829    8.158466  -29.990514
 H   31.779688    7.450490  -35.635348
 H   30.887057    6.338527  -34.625645
 H   34.328633    8.122024  -33.425509
 H   33.687056    8.338639  -35.061974
 H   29.591498    8.270980  -33.647390
 H   30.632285    9.407466  -34.525798
 H   29.544994    8.319065  -35.410573
 H   26.045078    5.956628  -27.026743
 H   26.640542    4.829159  -29.755339
 H   34.450755    5.641331  -33.791991
 H   33.730539    5.833704  -35.402238
 H   35.348289    6.483664  -35.070070
