45 
6an1_ligand_xtb.xyz
 C    9.835336   18.627465   10.000286
 C   11.129058   18.123118   10.099094
 C   12.210076   18.904338    9.735378
 C   12.020985   20.204524    9.286209
 C   10.728102   20.705261    9.175139
 C    9.645828   19.921124    9.517406
 C   13.195266   21.066760    8.899411
 C   15.544006   21.185887    9.368394
 C   15.738413   22.303212    8.566641
 C   16.999270   22.861240    8.439443
 C   18.082426   22.312814    9.107062
 C   17.907667   21.200874    9.904530
 C   16.648715   20.611231   10.057362
 C    8.622717   17.839033   10.366324
 O    8.802401   16.835836   11.243980
 C   16.389919   19.453994   10.862785
 C   17.162654   18.627777   11.612660
 C   18.600912   18.573065   11.942611
 C   18.766622   17.390621   12.825171
 C   17.535547   16.757746   13.028666
 C   16.485444   17.487693   12.287644
 C   17.440237   15.628058   13.820544
 C   18.600406   15.141041   14.407821
 C   19.822245   15.769179   14.205941
 C   19.920439   16.903358   13.410923
 O    7.532880   18.076884    9.922664
 O   14.348538   20.579212    9.547042
 O   19.498539   19.312959   11.596876
 O   15.305268   17.216128   12.225520
 H   11.316027   17.108786   10.426089
 H   13.207659   18.502712    9.810447
 H   10.571858   21.712612    8.817843
 H    8.637093   20.294421    9.429866
 H   12.999966   22.108864    9.188901
 H   13.327492   21.031000    7.806152
 H   14.911772   22.748252    8.035107
 H   17.129862   23.730499    7.812059
 H   19.061862   22.752964    9.003291
 H   18.748884   20.770926   10.422786
 H    9.713663   16.780768   11.562173
 H   15.341671   19.165100   10.874955
 H   16.486524   15.146174   13.972203
 H   18.553320   14.260391   15.031334
 H   20.708657   15.368272   14.675023
 H   20.865477   17.398530   13.247843
