45 
6an1_ligand_ani-2x.xyz
 C    9.706044   18.708108    9.907143
 C   10.981050   18.164259   10.078033
 C   12.108464   18.915708    9.774940
 C   11.979258   20.220650    9.298196
 C   10.703320   20.754646    9.108910
 C    9.575842   20.002312    9.401140
 C   13.187477   21.044779    8.942350
 C   15.531540   21.115603    9.375630
 C   15.668480   22.251777    8.587226
 C   16.920365   22.846196    8.450732
 C   18.022746   22.310014    9.097021
 C   17.885151   21.174110    9.884553
 C   16.645339   20.546063   10.045255
 C    8.447183   17.944908   10.192927
 O    8.535908   16.930123   11.082229
 C   16.426415   19.349246   10.850779
 C   17.229828   18.558823   11.621492
 C   18.660837   18.557926   11.989700
 C   18.883326   17.380449   12.892009
 C   17.692402   16.693724   13.078776
 C   16.614047   17.383713   12.306412
 C   17.620146   15.559798   13.873860
 C   18.797068   15.133121   14.482511
 C   20.002208   15.826450   14.294710
 C   20.060300   16.963759   13.493506
 O    7.391933   18.198752    9.673385
 O   14.339614   20.484218    9.545455
 O   19.553857   19.321698   11.671127
 O   15.449989   17.041170   12.252515
 H   11.110744   17.134698   10.412380
 H   13.099997   18.495219    9.920414
 H   10.590912   21.766042    8.723827
 H    8.576452   20.397103    9.242152
 H   13.044260   22.078389    9.288126
 H   13.318337   21.074884    7.850603
 H   14.819698   22.689680    8.070678
 H   17.023553   23.735489    7.832755
 H   18.999770   22.772606    8.992799
 H   18.755360   20.767184   10.383569
 H    9.394914   16.941844   11.525661
 H   15.397636   18.999389   10.842610
 H   16.677144   15.037545   14.006291
 H   18.785409   14.249056   15.113897
 H   20.903439   15.467417   14.783946
 H   20.983939   17.512052   13.337370
