36 
6aoy_ligand_xtb.xyz
 C   -0.177556    0.321354    0.388940
 C   -0.624623    1.746077    0.753436
 O    0.221837    2.324381    1.707798
 C   -2.041173    1.678305    1.330384
 O   -2.550970    2.965440    1.567785
 C   -2.965656    0.985022    0.315282
 O   -3.138807    1.795682   -0.813382
 C   -2.369382   -0.367114   -0.102096
 C   -3.158835   -0.997473   -1.257624
 O   -2.600728   -2.219486   -1.653376
 O   -1.030130   -0.252720   -0.558839
 O    1.104022    0.464779   -0.135020
 C    1.939416   -0.593680   -0.224413
 C    3.316213   -0.316826   -0.280163
 C    4.236890   -1.343661   -0.462685
 C    3.807052   -2.651372   -0.552217
 C    2.450998   -2.933255   -0.463695
 C    1.523901   -1.919200   -0.308231
 N    3.815661    1.022405   -0.113877
 O    4.926321    1.255317   -0.537304
 O    3.122690    1.832956    0.467891
 H   -0.150072   -0.305949    1.305639
 H   -0.638727    2.332568   -0.177960
 H    1.129308    2.319428    1.364465
 H   -2.010977    1.099635    2.267332
 H   -1.865387    3.461252    2.033291
 H   -3.938946    0.798874    0.798484
 H   -3.277471    2.696095   -0.485301
 H   -2.384259   -1.036850    0.774717
 H   -4.178298   -1.205975   -0.930601
 H   -3.180383   -0.278982   -2.084110
 H   -1.696265   -2.040661   -1.937794
 H    5.284609   -1.088696   -0.514130
 H    4.521448   -3.447778   -0.684727
 H    2.107905   -3.954589   -0.526247
 H    0.470174   -2.144800   -0.271252
