32 
6ap7_ligand_aiqm1.xyz
 O  -11.954696  -45.052792  -32.369070
 C  -13.751798  -39.967486  -31.992107
 C  -15.612255  -42.035152  -33.246847
 C  -16.305239  -43.039832  -33.901281
 C  -15.822520  -44.348758  -33.918043
 C  -14.628686  -44.633618  -33.274832
 C  -14.034453  -37.943912  -33.302088
 C  -13.451914  -37.821689  -30.995340
 O  -12.098655  -37.240592  -29.213595
 N  -13.075538  -36.937655  -29.878941
 O  -13.747298  -35.930313  -29.721607
 C  -13.465075  -39.205829  -30.836616
 C  -13.223188  -39.896934  -29.523003
 C  -13.757947  -37.173062  -32.185314
 C  -14.007471  -39.333582  -33.212870
 N  -13.699560  -41.358674  -31.885168
 C  -14.396339  -42.312623  -32.590204
 C  -13.895671  -43.636919  -32.616812
 C  -12.632211  -43.980643  -31.909295
 O  -12.181996  -43.371839  -30.965676
 H  -12.355878  -45.364227  -33.185382
 H  -16.019776  -41.035621  -33.204188
 H  -17.244042  -42.804269  -34.386474
 H  -16.375124  -45.136037  -34.408702
 H  -14.283952  -45.662562  -33.246850
 H  -14.253399  -37.469029  -34.248684
 H  -13.989200  -40.655660  -29.354371
 H  -12.257216  -40.405608  -29.512031
 H  -13.240464  -39.203503  -28.688475
 H  -13.754263  -36.093071  -32.216389
 H  -14.184594  -39.936815  -34.094127
 H  -13.007783  -41.741994  -31.261219
