32 
6ap8_ligand_aiqm1.xyz
 O  -26.772777   15.221988  -20.902310
 C  -30.043268   14.815128  -18.842237
 C  -28.020568   15.842743  -16.801673
 C  -26.999095   16.162171  -15.922813
 C  -25.666226   16.136154  -16.334387
 C  -25.372366   15.776577  -17.639927
 C  -31.742940   13.651229  -17.558720
 C  -32.295966   14.712287  -19.618679
 O  -34.445583   15.280657  -20.204427
 N  -33.346936   14.950854  -20.622680
 O  -33.070075   14.763811  -21.796174
 C  -30.997143   15.173893  -19.821529
 C  -30.590292   16.033715  -20.986394
 C  -32.698412   13.989659  -18.502299
 C  -30.417778   14.040167  -17.739236
 N  -28.717178   15.197976  -19.053123
 C  -27.733849   15.474267  -18.131604
 C  -26.381487   15.432917  -18.549514
 C  -26.035578   15.080453  -19.953453
 O  -24.805464   14.567460  -20.162201
 H  -29.050346   15.910009  -16.482332
 H  -27.245955   16.455546  -14.910270
 H  -24.871977   16.407717  -15.655166
 H  -24.338505   15.807917  -17.969301
 H  -32.019942   13.069261  -16.690342
 H  -30.000080   16.881891  -20.635505
 H  -29.970107   15.479517  -21.693636
 H  -31.448229   16.416661  -21.529439
 H  -33.733434   13.694827  -18.406625
 H  -29.663149   13.742367  -17.022492
 H  -28.392122   15.208308  -20.006559
 H  -24.377271   14.398074  -19.318253
