40 
6aqf_ligand_xtb.xyz
 C   19.750744  167.898304   15.608166
 C   19.393240  166.568077   15.533766
 C   20.202781  165.669107   14.845673
 O   19.818451  164.364767   14.791485
 C   21.366395  166.124744   14.239678
 C   21.714003  167.461090   14.322520
 C   20.911812  168.365767   15.002251
 C   21.304083  169.808768   15.128177
 C   22.033711  170.048531   16.462247
 N   22.369677  171.433084   16.660172
 C   21.534399  172.329780   17.209538
 N   21.902913  173.600699   17.141885
 N   20.416575  171.848040   17.807817
 C   19.621984  172.708324   18.389237
 N   18.477948  172.331963   18.981824
 N   19.932985  174.021990   18.378905
 N   19.284839  175.077475   18.905067
 C   21.097872  174.464001   17.736155
 N   21.170411  175.769384   17.859292
 C   20.062145  176.096696   18.568686
 C   19.780733  177.459801   18.914950
 C   20.501052  178.593257   18.627148
 C   19.783760  179.663723   19.198581
 C   18.687315  179.106252   19.788031
 O   18.676290  177.777863   19.622589
 H   19.116990  168.591655   16.141198
 H   18.491553  166.201799   15.998081
 H   20.461818  163.854964   14.284678
 H   21.999793  165.431342   13.701555
 H   22.621026  167.801760   13.844305
 H   20.416269  170.443012   15.108179
 H   21.956684  170.098664   14.302385
 H   22.952480  169.457516   16.493936
 H   21.384823  169.748701   17.286276
 H   23.128190  171.834745   16.130828
 H   18.270721  171.355620   19.079343
 H   17.951016  173.031449   19.476143
 H   21.418400  178.626550   18.078195
 H   20.044023  180.702139   19.175867
 H   17.872694  179.538396   20.335688
