40 
6aqf_ligand_aiqm1.xyz
 C   19.685941  167.825580   15.692723
 C   19.358378  166.479213   15.592395
 C   20.187847  165.623372   14.872815
 O   19.827117  164.306194   14.802836
 C   21.332294  166.120962   14.258414
 C   21.644520  167.472232   14.370985
 C   20.832697  168.349943   15.089060
 C   21.195495  169.800825   15.240498
 C   22.128502  170.046547   16.433551
 N   22.445238  171.452462   16.609297
 C   21.615280  172.357855   17.158115
 N   22.034105  173.620085   17.131324
 N   20.450511  171.860894   17.684562
 C   19.659746  172.750530   18.235777
 N   18.478356  172.444720   18.780296
 N   20.011328  174.055874   18.260294
 N   19.300398  175.090798   18.800806
 C   21.197786  174.492179   17.707211
 N   21.283396  175.803439   17.870925
 C   20.122637  176.106456   18.530289
 C   19.815643  177.466470   18.910220
 C   20.512757  178.622893   18.726524
 C   19.715837  179.653800   19.312472
 C   18.605587  179.036990   19.800778
 O   18.645746  177.700850   19.566039
 H   19.035366  168.485375   16.255612
 H   18.469774  166.080002   16.062574
 H   20.476772  163.835335   14.276813
 H   21.979773  165.459372   13.693445
 H   22.539903  167.845569   13.887795
 H   20.295642  170.404178   15.384122
 H   21.686890  170.163483   14.332171
 H   23.068263  169.512379   16.290588
 H   21.673468  169.675650   17.352183
 H   23.258413  171.847908   16.166526
 H   18.213039  171.481906   18.862912
 H   17.966953  173.180643   19.237792
 H   21.466640  178.695621   18.234395
 H   19.931067  180.707936   19.366767
 H   17.733496  179.393278   20.318596
