40 
6aqf_ligand_ani-2x.xyz
 C   19.588595  167.719438   15.572754
 C   19.346072  166.360167   15.422212
 C   20.291075  165.554797   14.788071
 O   20.005152  164.228552   14.662641
 C   21.473876  166.120293   14.313073
 C   21.700337  167.482662   14.477991
 C   20.765269  168.307654   15.102747
 C   21.046405  169.776957   15.299574
 C   22.028223  170.038408   16.453610
 N   22.382351  171.437931   16.610330
 C   21.565298  172.353270   17.172557
 N   21.996147  173.622789   17.142811
 N   20.403190  171.873894   17.713681
 C   19.639939  172.776637   18.278998
 N   18.473648  172.507689   18.875471
 N   20.003867  174.095273   18.287464
 N   19.324194  175.141785   18.821524
 C   21.190967  174.507551   17.712708
 N   21.284208  175.823859   17.869364
 C   20.147875  176.137805   18.532724
 C   19.861457  177.507807   18.903207
 C   20.567071  178.652884   18.702503
 C   19.787087  179.698628   19.288580
 C   18.677839  179.097936   19.792932
 O   18.704522  177.762647   19.568224
 H   18.839303  168.337172   16.064429
 H   18.428908  165.906683   15.787016
 H   20.736207  163.790238   14.209262
 H   22.218364  165.498102   13.818147
 H   22.630090  167.914482   14.110975
 H   20.119471  170.319504   15.518804
 H   21.465234  170.206703   14.380740
 H   22.956727  169.482033   16.291852
 H   21.586063  169.698039   17.393266
 H   23.192902  171.818654   16.144677
 H   18.147536  171.556099   18.932953
 H   17.953645  173.263765   19.298793
 H   21.522115  178.713149   18.196325
 H   20.022469  180.753712   19.327659
 H   17.808909  179.464154   20.319853
