38 
6arn_ligand_ani-2x.xyz
 C    4.259775   -1.322478   -0.110889
 C   -1.393300    1.189603   -0.605227
 C   -2.539027    1.380341    0.373538
 O   -1.830686   -3.304943    1.593744
 C   -2.815091   -2.392602    1.166057
 C   -2.222362   -0.999819    1.028609
 O   -1.160082   -1.121638    0.074169
 C   -0.462912    0.069007   -0.159305
 O    0.435730   -0.159648   -1.218736
 C    1.690601   -0.568975   -0.825481
 C    2.003589   -1.912165   -0.715863
 C    3.299443   -2.291050   -0.360482
 C    3.944197    0.036059   -0.211436
 C    2.656858    0.414725   -0.567753
 O    2.208143    1.701158   -0.683891
 C    3.136831    2.738473   -0.426502
 O   -0.707553    2.423206   -0.685538
 O   -3.496717    2.280523   -0.149468
 C   -3.245484    0.052145    0.610441
 O   -3.878318   -0.371845   -0.573918
 H    5.270203   -1.612671    0.168141
 H   -1.809209    0.897166   -1.581412
 H   -2.134925    1.757747    1.327368
 H   -1.091830   -3.190093    0.980194
 H   -3.603623   -2.386331    1.926578
 H   -3.264939   -2.685545    0.207077
 H   -1.782245   -0.708293    1.999100
 H    0.089470    0.370327    0.749511
 H    1.231068   -2.647557   -0.920274
 H    3.551802   -3.344756   -0.279021
 H    4.702743    0.784019   -0.005886
 H    3.506592    2.686018    0.604750
 H    3.982623    2.694173   -1.124028
 H    2.595559    3.674857   -0.570766
 H    0.182044    2.247150   -1.033728
 H   -3.001755    3.035057   -0.502089
 H   -3.979023    0.176668    1.426338
 H   -4.328093    0.412085   -0.924120
