39 
6aro_ligand_xtb.xyz
 C   -2.633454   -0.392030   -1.403488
 C    2.254698   -0.674460   -2.797212
 C    3.605235   -0.311292   -2.914927
 C    4.312962   -0.060985   -1.771008
 C    3.687704   -0.107417    1.886962
 C    4.353199    0.036964    0.701394
 C    3.674777   -0.160006   -0.516331
 C    2.291974   -0.497290   -0.510985
 C    1.616425   -0.592671    0.738774
 C    2.322666   -0.416406    1.905493
 O    0.297404   -0.943628    0.830045
 C   -0.645017   -0.234174    0.082716
 C   -1.562605   -1.208779   -0.661548
 C   -3.393671    0.493854   -0.406614
 C   -2.389497    1.329566    0.400374
 O   -1.377859    0.537722    0.998071
 C   -3.073157    2.073752    1.553847
 O   -2.156604    2.848778    2.275402
 O   -4.167604   -0.295228    0.453855
 O   -3.554989   -1.250926   -2.029801
 O   -0.873983   -2.023457   -1.572568
 N    1.624876   -0.757931   -1.656724
 H   -2.136058    0.242046   -2.157306
 H    1.666448   -0.907416   -3.675400
 H    4.062803   -0.246601   -3.889388
 H    5.359803    0.205805   -1.807077
 H    4.206282    0.029769    2.823599
 H    5.402658    0.290361    0.677544
 H    1.796857   -0.520395    2.841141
 H   -0.155888    0.434549   -0.652631
 H   -2.052797   -1.851646    0.082434
 H   -4.045132    1.183134   -0.969970
 H   -1.914819    2.052978   -0.285658
 H   -3.826163    2.756589    1.157547
 H   -3.557874    1.327769    2.193910
 H   -1.440439    2.257902    2.539754
 H   -4.570290   -0.982326   -0.097212
 H   -3.044151   -1.991346   -2.384880
 H    0.035679   -1.675331   -1.680134
