53 
6as8_ligand_aiqm1.xyz
 C    1.178034   -3.299506    2.497152
 C    2.900230   -1.684062    2.046832
 C    2.663773    0.023233    0.222084
 C    3.590028    2.231666   -1.246459
 C    3.408692    2.325834    0.135697
 C    3.651866    3.589678    0.873511
 C   -1.681424    0.306239   -0.756486
 C   -0.911107    2.657744   -0.565268
 O   -3.752292    1.443294   -1.456821
 C   -3.211835    0.409679   -0.664042
 C   -3.859611   -0.880137   -1.172873
 O   -3.719642   -0.973147   -2.575877
 C   -3.236426   -2.112051   -0.528405
 C   -3.733313   -3.409302   -1.125902
 O   -3.233110   -4.528795   -0.412704
 O   -1.811922   -2.118142   -0.686831
 C   -1.215516   -0.995446   -0.101457
 O    0.167557   -1.099151   -0.279582
 C    0.885330   -1.684052    0.742457
 C    0.396434   -2.760562    1.476662
 C    2.427226   -2.762563    2.789617
 C    2.145273   -1.132945    1.009507
 C    2.839130   -0.062463   -1.163816
 C    3.303296    1.030682   -1.890079
 O    3.396688    3.766319    2.039926
 O    4.181225    4.554767    0.092628
 C    2.962072    1.223145    0.866520
 N   -0.997384    1.399625   -0.069185
 C    0.109043    3.550929    0.095225
 O   -1.625890    3.062616   -1.478010
 H    0.805249   -4.140510    3.065100
 H    3.866996   -1.249892    2.270524
 H    3.942543    3.091298   -1.798416
 H   -1.404871    0.282768   -1.811734
 H   -3.085354    2.147884   -1.555498
 H   -3.481436    0.555464    0.394230
 H   -4.922273   -0.849801   -0.904405
 H   -3.871510   -0.078881   -2.899225
 H   -3.479092   -2.086399    0.546608
 H   -3.462804   -3.446046   -2.182650
 H   -4.818509   -3.442754   -1.037703
 H   -2.305309   -4.622319   -0.638444
 H   -1.458298   -0.964841    0.975105
 H   -0.577829   -3.175629    1.252578
 H    3.028826   -3.176187    3.586436
 H    2.591431   -0.986619   -1.670359
 H    3.433953    0.948042   -2.961677
 H    4.297763    5.324483    0.662336
 H    2.843494    1.317449    1.938698
 H   -0.265276    1.117188    0.565797
 H    0.942708    3.690927   -0.595060
 H    0.502271    3.145957    1.027794
 H   -0.339499    4.525593    0.267847
