53 
6as8_ligand_ani-2x.xyz
 C    1.191674   -3.401593    2.313018
 C    2.894414   -1.748406    1.949728
 C    2.580164    0.184014    0.381203
 C    3.525597    2.575317   -0.766905
 C    3.700227    2.329453    0.596119
 C    4.374513    3.298931    1.497637
 C   -1.773222    0.236336   -0.986782
 C   -1.040472    2.605105   -1.224393
 O   -3.883961    1.193947   -1.835097
 C   -3.310319    0.348493   -0.866072
 C   -3.968798   -1.024460   -1.109478
 O   -3.890225   -1.322333   -2.482014
 C   -3.272111   -2.133646   -0.330775
 C   -3.727901   -3.534538   -0.717117
 O   -2.921378   -4.493799   -0.071577
 O   -1.861027   -2.111527   -0.559851
 C   -1.283818   -0.917276   -0.114420
 O    0.102408   -0.997941   -0.235517
 C    0.834721   -1.625986    0.733474
 C    0.370406   -2.762033    1.392455
 C    2.460156   -2.902629    2.587816
 C    2.098902   -1.082456    1.014383
 C    2.398091    0.449300   -0.982526
 C    2.872668    1.627782   -1.548268
 O    4.538426    3.141119    2.686612
 O    4.802970    4.409008    0.861263
 C    3.240693    1.140680    1.156683
 N   -1.055540    1.431137   -0.548728
 C   -0.015694    3.625213   -0.780578
 O   -1.820962    2.864079   -2.141967
 H    0.835700   -4.293280    2.822469
 H    3.884391   -1.352826    2.164436
 H    3.892871    3.500670   -1.199412
 H   -1.535650    0.006248   -2.034222
 H   -3.248921    1.915676   -2.041746
 H   -3.556848    0.710768    0.145766
 H   -5.020574   -0.962255   -0.780541
 H   -4.075731   -0.479613   -2.927269
 H   -3.444205   -1.990140    0.749570
 H   -3.693854   -3.636737   -1.810169
 H   -4.760757   -3.694311   -0.387790
 H   -2.015241   -4.258718   -0.322749
 H   -1.550134   -0.747354    0.945066
 H   -0.624100   -3.145752    1.184276
 H    3.103753   -3.400691    3.307564
 H    1.885383   -0.275128   -1.604899
 H    2.713492    1.816304   -2.608342
 H    5.218447    4.955246    1.548640
 H    3.389694    0.992189    2.224256
 H   -0.244754    1.246293    0.032491
 H    0.538720    3.963094   -1.661390
 H    0.682439    3.234518   -0.036201
 H   -0.535125    4.494807   -0.366229
