53 
6as8_ligand_xtb.xyz
 C    1.157803   -3.268154    2.480153
 C    2.881508   -1.662906    2.050209
 C    2.618432    0.081209    0.292307
 C    3.491903    2.359181   -1.075776
 C    3.545358    2.311903    0.315503
 C    4.039992    3.454602    1.115133
 C   -1.666577    0.244435   -1.023067
 C   -1.123331    2.696206   -0.555364
 O   -3.733658    1.306139   -1.801166
 C   -3.193946    0.394006   -0.892747
 C   -3.854561   -0.960103   -1.238928
 O   -3.730189   -1.203911   -2.612417
 C   -3.229209   -2.116536   -0.453694
 C   -3.738898   -3.476830   -0.946970
 O   -3.142478   -4.532299   -0.245550
 O   -1.819124   -2.144505   -0.596819
 C   -1.220385   -0.961408   -0.167190
 O    0.160522   -1.054112   -0.289782
 C    0.874557   -1.649974    0.732284
 C    0.390086   -2.721237    1.465988
 C    2.404911   -2.743448    2.770187
 C    2.130451   -1.099757    1.025165
 C    2.569759    0.140125   -1.100393
 C    3.005927    1.268651   -1.774194
 O    4.076545    3.480049    2.320384
 O    4.447299    4.491969    0.368102
 C    3.114363    1.174684    0.991865
 N   -0.868560    1.373673   -0.572474
 C    0.056270    3.512171   -0.075762
 O   -2.181015    3.208410   -0.876895
 H    0.775690   -4.107287    3.040994
 H    3.852061   -1.246172    2.274385
 H    3.830872    3.242685   -1.593172
 H   -1.431558    0.014710   -2.072502
 H   -3.332368    2.184423   -1.603367
 H   -3.436398    0.671929    0.146144
 H   -4.920473   -0.890592   -0.965142
 H   -3.907947   -0.355746   -3.047825
 H   -3.471609   -1.987195    0.615408
 H   -3.537018   -3.544317   -2.021547
 H   -4.813536   -3.548117   -0.774127
 H   -2.189069   -4.455381   -0.373959
 H   -1.500578   -0.768492    0.893390
 H   -0.581857   -3.128582    1.235848
 H    3.003908   -3.171601    3.559074
 H    2.196089   -0.708745   -1.650994
 H    2.966916    1.295854   -2.852885
 H    4.761282    5.206599    0.943578
 H    3.158124    1.167222    2.070890
 H    0.077712    1.088820   -0.349925
 H    0.873027    3.433557   -0.790638
 H    0.406339    3.152127    0.888817
 H   -0.243763    4.552372    0.011364
