26 
6au2_ligand_ani-2x.xyz
 C   16.717979   59.045211    8.420596
 C   16.765303   59.621370    7.018678
 C   17.967046   59.989222    6.421859
 N   12.902483   59.177347    8.547738
 C   18.008598   60.495623    5.125106
 C   16.825509   60.627145    4.404477
 N   14.350846   59.431060    6.909702
 C   15.612373   60.259142    4.976410
 C   15.581184   59.765603    6.276970
 C   13.182182   58.082813    5.109045
 C   13.297923   58.658394    6.478806
 C   14.043219   59.709207    8.221689
 N   12.432485   58.502400    7.443549
 O   16.184069   59.913553    9.411551
 C   14.955988   60.535045    9.079685
 H   17.725408   58.810340    8.773708
 H   16.131369   58.114797    8.405201
 H   18.889801   59.878079    6.989186
 H   18.959170   60.779731    4.681996
 H   16.839969   61.018709    3.391325
 H   14.686831   60.372412    4.419307
 H   12.924930   58.853768    4.373553
 H   14.124293   57.623830    4.795370
 H   12.390160   57.332749    5.109704
 H   14.454370   60.762110   10.023731
 H   15.158214   61.482539    8.556159
