28 
6au9_ligand_aiqm1.xyz
 C   33.489105   76.040115   62.770992
 C   29.802357   74.908588   59.742177
 C   31.506365   76.070822   60.806504
 C   37.598045   79.284264   63.677090
 C   36.576285   79.093632   62.588847
 C   35.586637   78.181337   62.714099
 C   34.604094   78.010185   61.640402
 C   33.537936   76.995725   61.747386
 C   32.449751   75.121171   62.819530
 C   31.446621   75.138910   61.852368
 C   29.325203   74.522595   61.119968
 C   32.542270   76.990921   60.762742
 O   38.519299   80.218251   63.420343
 O   37.586521   78.647926   64.693918
 O   36.745310   79.884720   61.530357
 O   34.678365   78.738442   60.636911
 O   30.447894   74.221309   61.947328
 O   30.555003   76.114006   59.825476
 H   34.255175   75.992434   63.531124
 H   28.966390   75.115268   59.078891
 H   30.423775   74.112223   59.322109
 H   35.557847   77.612662   63.626845
 H   32.395248   74.376886   63.601866
 H   28.717864   73.621312   61.092945
 H   28.754780   75.343655   61.562513
 H   32.575602   77.712417   59.956874
 H   38.337784   80.600665   62.551849
 H   35.999474   79.653260   60.912347
