28 
6au9_ligand_xtb.xyz
 C   33.564146   75.975731   62.710650
 C   29.774352   74.940967   59.777031
 C   31.539866   76.053427   60.795250
 C   37.436521   79.423315   63.770636
 C   36.539735   79.109693   62.597201
 C   35.538921   78.203702   62.702326
 C   34.682466   77.927852   61.559262
 C   33.602512   76.937200   61.697303
 C   32.516921   75.083873   62.777977
 C   31.483492   75.125512   61.845650
 C   29.325444   74.563099   61.187150
 C   32.591881   76.948947   60.735898
 O   38.367139   80.334433   63.499531
 O   37.316714   78.896756   64.841133
 O   36.826007   79.790622   61.488153
 O   34.852330   78.533762   60.492482
 O   30.446349   74.254506   61.989782
 O   30.583404   76.095882   59.817443
 H   34.355696   75.906482   63.438235
 H   28.922161   75.181693   59.140434
 H   30.337446   74.104913   59.339919
 H   35.384200   77.726997   63.652385
 H   32.465151   74.340374   63.557125
 H   28.695379   73.672796   61.180494
 H   28.773543   75.403113   61.629668
 H   32.626240   77.667344   59.932046
 H   38.285092   80.628005   62.574163
 H   36.147894   79.492707   60.804473
