75 
6axj_ligand_dft.xyz
 O    3.236389   -1.781390   -0.057483
 C    4.424637   -2.121601   -0.110837
 C    4.810914   -3.540922   -0.437477
 N    5.419244   -1.239929    0.109151
 C    5.147469    0.156709    0.402085
 C    4.708187    0.952512   -0.834174
 C    4.206920    2.365768   -0.492519
 C    2.686659    2.533470   -0.346355
 C    2.021012    1.785576    0.814124
 N    1.667485    0.379267    0.455758
 C    0.691597    2.369342    1.329016
 O    0.339442    2.134355    2.477272
 N   -0.047577    3.047117    0.425912
 C   -1.490842    3.212802    0.569678
 C   -2.085567    1.911687    0.004399
 O   -2.173067    0.920169    0.715541
 C   -1.928790    4.511357   -0.089675
 O   -1.422358    4.510949   -1.419462
 N   -2.345400    1.870956   -1.320098
 C   -2.458949    0.566474   -1.937529
 C   -1.139050   -0.200459   -1.719295
 O   -0.063401    0.421172   -1.713158
 C   -2.717840    0.708765   -3.436966
 N   -1.188178   -1.537598   -1.624896
 C   -2.411511   -2.339329   -1.456587
 C   -3.036337   -2.118076   -0.064033
 O   -4.212648   -1.826269    0.049607
 C   -1.924155   -3.771680   -1.731751
 C   -0.447210   -3.772242   -1.316965
 C    0.040211   -2.348482   -1.614172
 N   -2.178183   -2.267427    0.982432
 C   -2.428683   -1.634183    2.265664
 C   -1.220129   -0.756337    2.547245
 O   -0.143256   -0.955785    1.995132
 C   -2.657719   -2.645621    3.392364
 O   -1.423654    0.183665    3.438839
 H    4.215902   -4.215846    0.181521
 H    4.561775   -3.742233   -1.483573
 H    5.871965   -3.748447   -0.281312
 H    6.376099   -1.551650    0.047346
 H    6.056322    0.593803    0.823886
 H    4.391177    0.195450    1.194720
 H    5.563760    1.017280   -1.513995
 H    3.935657    0.393639   -1.375630
 H    4.519887    3.054538   -1.282953
 H    4.695677    2.724991    0.423233
 H    2.494180    3.602081   -0.197603
 H    2.196174    2.249735   -1.287754
 H    2.680280    1.743389    1.684606
 H    2.470529   -0.266565    0.287490
 H    1.093270   -0.057490    1.208946
 H    1.070006    0.349476   -0.402469
 H    0.286777    3.113693   -0.527026
 H   -1.724235    3.237311    1.635010
 H   -3.024272    4.575475   -0.077251
 H   -1.518006    5.353243    0.480007
 H   -1.642978    5.348748   -1.842778
 H   -2.080022    2.672235   -1.882075
 H   -3.289230    0.042457   -1.460542
 H   -1.883281    1.221270   -3.926719
 H   -3.637272    1.274979   -3.606859
 H   -2.833071   -0.273950   -3.902475
 H   -3.178804   -2.045491   -2.174504
 H   -2.519635   -4.514258   -1.196847
 H   -2.018016   -3.973733   -2.803026
 H    0.133641   -4.519093   -1.861740
 H   -0.346362   -4.000342   -0.251676
 H    0.747724   -1.990797   -0.862358
 H    0.527037   -2.266849   -2.591449
 H   -1.191170   -2.309055    0.766103
 H   -3.300772   -0.984970    2.160591
 H   -1.798251   -3.315505    3.493997
 H   -2.823649   -2.133944    4.344425
 H   -3.540528   -3.244064    3.156210
 H   -0.674539    0.815673    3.398967
