35 
6ayh_ligand_xtb.xyz
 C   -2.519052   -1.339667   -1.710678
 C    1.716507   -1.204121    0.327777
 C    4.079721   -1.562526    0.135486
 C   -2.678688    1.685632    0.670630
 C   -1.201505    2.034981    0.469608
 C   -0.384044    0.733492    0.409735
 C   -2.184725   -0.490816   -0.480152
 C   -3.136493    0.711080   -0.422362
 C    1.919892    0.162510    0.150510
 C    2.797162   -2.062688    0.320164
 C    4.290521   -0.198778   -0.050627
 C    3.214542    0.657200   -0.040980
 N    5.200347   -2.461971    0.132022
 O   -3.495672    2.824336    0.601212
 O   -0.799834    2.848649    1.541367
 O   -0.836734   -0.098178   -0.627028
 O   -4.420526    0.220056   -0.156969
 O   -2.587053   -2.628425   -1.401414
 O   -2.687755   -0.902754   -2.809638
 O    0.935589    1.104782    0.158853
 O    4.976214   -3.643034    0.296460
 O    6.304292   -1.986370   -0.032447
 H    0.723303   -1.602988    0.445984
 H   -2.789390    1.201905    1.655956
 H   -1.076171    2.556479   -0.491138
 H   -0.462516    0.208538    1.385009
 H   -2.318110   -1.103329    0.424264
 H   -3.106204    1.230432   -1.392342
 H    2.661360   -3.125045    0.453801
 H    5.296000    0.164125   -0.198112
 H    3.345599    1.717482   -0.183685
 H   -3.114539    3.494187    1.182165
 H    0.142390    3.033372    1.449656
 H   -4.998391    0.983578   -0.028882
 H   -2.805739   -3.162221   -2.184203
