37 
6b1k_ligand_aiqm1.xyz
 C  -16.691150  -18.337338   20.015337
 C  -17.191628  -17.321532   19.229608
 C  -17.946027  -17.652784   18.082651
 N  -19.262518  -14.744043   16.415633
 C  -18.474653  -16.577183   17.232929
 C  -18.849856  -15.300157   17.577609
 N  -19.134129  -15.622801   15.401050
 C  -19.749790  -13.432960   16.178593
 C  -19.585312  -12.861369   14.917708
 C  -20.049924  -11.577622   14.675628
 C  -20.679868  -10.862971   15.695179
 N  -18.666342  -16.729279   15.890614
 C  -20.851505  -11.440298   16.950284
 C  -20.389287  -12.730138   17.191915
 C  -17.718846  -19.892226   18.495619
 N  -18.202693  -18.902612   17.726918
 N  -17.510657  -22.283438   18.869863
 C  -17.773625  -23.670720   18.509619
 O  -21.108451   -9.601963   15.402269
 C  -16.757660  -22.034598   19.991897
 C  -18.040117  -21.275815   18.061500
 C  -16.464965  -20.787567   20.410308
 C  -16.951438  -19.668370   19.652725
 O  -18.713030  -21.543928   17.085639
 H  -16.101667  -18.121317   20.897516
 H  -17.002192  -16.282306   19.470843
 H  -18.859562  -14.759341   18.507550
 H  -19.109813  -13.438882   14.137574
 H  -19.936813  -11.117102   13.704620
 H  -21.354647  -10.894289   17.739365
 H  -20.544885  -13.184068   18.161229
 H  -16.831490  -24.194893   18.354412
 H  -18.340744  -24.157328   19.302271
 H  -18.351207  -23.666005   17.591689
 H  -21.545097   -9.230826   16.171711
 H  -16.416783  -22.917082   20.515706
 H  -15.870431  -20.635150   21.297720
