49 
6b3v_ligand_aiqm1.xyz
 C  -35.361922   -6.099439  -16.656146
 C  -33.998214   -6.330813  -16.441472
 C  -33.652668   -7.420974  -15.681882
 C  -33.126377   -9.729792  -14.079929
 C  -32.294417  -11.771533   -7.212894
 C  -30.659251  -14.104819   -5.034258
 C  -32.017715  -13.486925   -5.376868
 C  -33.151855  -14.436108   -4.980866
 C  -32.102044  -13.102850   -6.838569
 C  -31.999334  -14.056746   -7.855325
 C  -32.089482  -13.686704   -9.195214
 C  -32.282348  -12.355683   -9.562287
 C  -32.402287  -11.972933  -11.010734
 C  -33.850692  -11.786393  -11.465484
 C  -35.390898  -11.327017  -13.291500
 C  -35.536222   -9.839250  -13.568271
 C  -34.703626   -8.226619  -15.184098
 C  -35.794832   -4.976215  -17.446509
 C  -33.032557  -11.222846  -13.766526
 C  -32.382180  -11.398567   -8.551494
 N  -34.047143  -11.612941  -12.812806
 N  -34.481103   -9.391374  -14.488818
 N  -35.994660   -7.919545  -15.418161
 N  -36.323096   -6.867646  -16.148276
 N  -36.085010   -4.059007  -18.092667
 O  -34.785835  -11.820067  -10.685943
 H  -33.259579   -5.660063  -16.857632
 H  -32.615895   -7.629088  -15.474050
 H  -32.438553   -9.521941  -14.898509
 H  -32.812378   -9.138136  -13.208503
 H  -32.387565  -11.011643   -6.444145
 H  -30.601014  -14.334978   -3.967941
 H  -30.507518  -15.036866   -5.584638
 H  -29.839669  -13.429953   -5.286723
 H  -32.127142  -12.568651   -4.790031
 H  -34.127341  -14.000014   -5.197914
 H  -33.077107  -15.378768   -5.528825
 H  -33.104498  -14.666182   -3.913761
 H  -31.856873  -15.101571   -7.602476
 H  -32.023567  -14.445999   -9.968360
 H  -31.944735  -12.743735  -11.636350
 H  -31.867739  -11.036610  -11.199882
 H  -35.559350  -11.894629  -14.211114
 H  -36.098047  -11.649960  -12.534902
 H  -35.471195   -9.277279  -12.628549
 H  -36.495255   -9.621358  -14.026640
 H  -32.038122  -11.460112  -13.398575
 H  -33.192787  -11.791744  -14.687075
 H  -32.555101  -10.358613   -8.809706
