49 
6b3v_ligand_xtb.xyz
 C  -35.649640   -7.326518  -17.533101
 C  -34.264641   -7.205171  -17.297529
 C  -33.792830   -7.585945  -16.070988
 C  -33.076977   -8.673265  -13.382409
 C  -31.967970  -12.008569   -6.981615
 C  -30.857528  -15.006463   -5.398143
 C  -32.048737  -14.053279   -5.517051
 C  -33.363067  -14.790792   -5.253081
 C  -32.072512  -13.388119   -6.871097
 C  -32.203061  -14.131249   -8.038290
 C  -32.226309  -13.514231   -9.273630
 C  -32.118413  -12.134457   -9.378599
 C  -32.178661  -11.466702  -10.723998
 C  -33.632501  -11.300031  -11.162013
 C  -35.181584  -10.519313  -12.860829
 C  -35.418954   -9.012289  -12.992066
 C  -34.730635   -8.070877  -15.125423
 C  -36.194867   -6.955585  -18.784096
 C  -32.835746  -10.191126  -13.271768
 C  -31.993122  -11.387972   -8.217373
 N  -33.828123  -10.769869  -12.401729
 N  -34.414893   -8.430710  -13.862410
 N  -36.036318   -8.145985  -15.448460
 N  -36.473724   -7.788822  -16.599268
 N  -36.588711   -6.642719  -19.814352
 O  -34.568025  -11.638159  -10.469850
 H  -33.609538   -6.823788  -18.066342
 H  -32.741110   -7.506046  -15.846336
 H  -32.331009   -8.223451  -14.034122
 H  -32.984707   -8.223614  -12.386944
 H  -31.869217  -11.407990   -6.087989
 H  -30.815545  -15.433506   -4.398428
 H  -30.940192  -15.819747   -6.114752
 H  -29.926796  -14.475739   -5.587574
 H  -31.937229  -13.272692   -4.755878
 H  -34.204590  -14.108424   -5.349058
 H  -33.499485  -15.603152   -5.962351
 H  -33.366074  -15.207845   -4.248194
 H  -32.291278  -15.206281   -7.986581
 H  -32.335488  -14.110105  -10.168777
 H  -31.656191  -12.074908  -11.466392
 H  -31.707065  -10.482593  -10.671138
 H  -35.326777  -11.000915  -13.833681
 H  -35.866460  -10.953997  -12.132264
 H  -35.336202   -8.541530  -12.007484
 H  -36.401535   -8.814742  -13.417030
 H  -31.828594  -10.381290  -12.908044
 H  -32.937926  -10.639165  -14.268995
 H  -31.916245  -10.310962   -8.275776
