66 
6b4w_ligand_ani-2x.xyz
 C    4.406429   32.379961   19.575411
 C    4.171395   32.650079   18.134333
 C    4.151080   33.360050   16.136852
 C    4.332635   34.002931   14.910887
 C    3.572826   33.575174   13.838305
 C    3.232117   32.319863   16.221804
 N    4.733377   33.540286   17.392326
 N    0.766047   30.854909   11.251316
 N    0.532156   34.762017   10.337640
 O    3.244088   31.859320   17.510243
 C    2.468050   31.870621   15.166016
 C    2.631699   32.530273   13.945108
 C    1.831042   32.131112   12.778138
 C    1.474197   30.853795   12.432167
 C    0.630258   32.135351   10.810813
 C    1.271742   32.972630   11.736936
 C    1.157909   34.338320   11.422844
 C    1.784226   36.606221   11.883966
 C    2.827739   37.190770   12.824175
 O    1.683435   35.224684   12.261268
 C   -0.164377   34.029525    5.060607
 O   -1.315286   34.407627    5.803940
 C   -1.159280   35.596940    6.482408
 C   -1.362257   36.805010    5.848925
 C   -1.244311   37.999731    6.560755
 C   -1.486089   39.272485    5.806245
 O   -2.114172   39.279238    4.757850
 N   -0.957571   40.402151    6.359757
 C   -1.050919   41.685883    5.698359
 C   -0.940133   37.948987    7.920411
 C   -0.722891   36.737026    8.564203
 C   -0.813964   35.540488    7.848345
 N   -0.636821   34.258210    8.382921
 C   -0.008650   33.837572    9.524320
 N   -0.004437   32.509764    9.700450
 C    2.080170   37.251132   14.165640
 C    0.599254   37.533161   13.799842
 C    0.497929   37.331561   12.266315
 H    5.160610   33.070086   19.954479
 H    3.480815   32.508196   20.144058
 H    4.751787   31.352158   19.719989
 H    5.037174   34.821840   14.807201
 H    3.706923   34.061242   12.878773
 H    0.399147   30.049334   10.772247
 H    1.758565   31.059528   15.294186
 H    1.710056   29.921537   12.931525
 H    2.036756   36.673950   10.822602
 H    3.735501   36.578107   12.862705
 H    3.109542   38.192968   12.480602
 H   -0.399415   33.077149    4.581640
 H    0.072091   34.776251    4.291758
 H    0.702163   33.906754    5.724926
 H   -1.622484   36.835432    4.794601
 H   -0.291306   40.301171    7.108438
 H   -1.412844   42.451097    6.392026
 H   -0.084891   42.001550    5.287050
 H   -1.761533   41.581729    4.877610
 H   -0.896581   38.858567    8.514632
 H   -0.483837   36.722840    9.621233
 H   -0.980663   33.506627    7.800072
 H    2.157314   36.284138   14.673622
 H    2.498007   38.008128   14.836256
 H    0.300414   38.549892   14.072567
 H   -0.063821   36.847454   14.333404
 H    0.475473   38.301208   11.752542
 H   -0.389607   36.772212   11.956415
