23 
6b7b_ligand_ani-2x.xyz
 C  -29.206382   11.782420   34.999896
 C  -28.384601   11.164088   34.040509
 C  -24.262523   11.145963   34.732963
 C  -31.817872   10.719078   32.643484
 C  -28.675588   12.374322   36.149618
 C  -26.990809   11.127774   34.220534
 C  -29.255991   10.673513   33.011947
 C  -30.536320   10.994242   33.359739
 C  -27.307549   12.333499   36.317009
 C  -26.466286   11.714975   35.360748
 N  -30.512067   11.668086   34.565488
 O  -25.137695   11.750400   35.657486
 H  -23.257545   11.274022   35.138046
 H  -24.475876   10.075077   34.620878
 H  -24.322661   11.629791   33.749509
 H  -32.493928   10.104413   33.249470
 H  -32.342456   11.646794   32.386199
 H  -31.613279   10.179218   31.715115
 H  -29.315139   12.851162   36.888433
 H  -26.356259   10.651046   33.481149
 H  -28.953751   10.142208   32.117102
 H  -26.835458   12.775714   37.189323
 H  -31.322964   12.014195   35.052357
