23 
6b7b_ligand_aiqm1.xyz
 C  -29.205645   11.776420   34.990504
 C  -28.382008   11.156767   34.028564
 C  -24.253465   11.151004   34.744358
 C  -31.824970   10.726508   32.654618
 C  -28.676935   12.368078   36.140113
 C  -26.986280   11.124292   34.215684
 C  -29.248179   10.664643   32.997558
 C  -30.532580   10.987609   33.348924
 C  -27.307810   12.329165   36.310862
 C  -26.467209   11.713026   35.358092
 N  -30.509816   11.659722   34.554549
 O  -25.135681   11.756391   35.669224
 H  -23.254275   11.280866   35.151721
 H  -24.465067   10.084153   34.632635
 H  -24.312339   11.632743   33.764624
 H  -32.492381   10.124380   33.274576
 H  -32.341059   11.658799   32.416177
 H  -31.645432   10.188879   31.725206
 H  -29.311311   12.843679   36.878268
 H  -26.352047   10.650275   33.480947
 H  -28.969177   10.135264   32.101417
 H  -26.845236   12.771683   37.182324
 H  -31.324100   12.007654   35.026056
