36 
6b7f_ligand_xtb.xyz
 C   -2.393401    2.816595   -0.550071
 C   -3.501198    2.259218    0.070564
 C   -3.450479    0.959030    0.535240
 C    0.906192   -2.468777   -0.347637
 C   -1.013271   -1.825271   -1.839884
 C    0.626418    0.281302    2.001854
 C    2.719097    0.598848    1.942224
 C    2.334546    0.408979    0.631230
 C    3.114030    0.413469   -0.577803
 C    4.437142    0.541984   -0.618163
 C    0.067459   -0.067947   -0.405254
 C   -1.236403    2.073828   -0.714937
 C   -1.181075    0.764684   -0.263137
 C   -2.291350    0.207717    0.369115
 C   -2.229242   -1.167646    0.928969
 C   -0.316751   -1.565150   -0.499395
 N    0.967254    0.208683    0.690704
 N    1.654125    0.516423    2.769169
 O   -3.035838   -1.588990    1.716653
 O   -1.198111   -1.942767    0.562273
 H   -2.429633    3.834714   -0.907201
 H   -4.399950    2.843138    0.196740
 H   -4.291066    0.502470    1.034818
 H    1.349464   -2.341324    0.636516
 H    1.648819   -2.237485   -1.106175
 H    0.600029   -3.505825   -0.449352
 H   -1.382712   -2.847421   -1.858255
 H   -1.855782   -1.150498   -1.978788
 H   -0.314289   -1.690411   -2.660874
 H   -0.376997    0.161822    2.358177
 H    3.698330    0.793098    2.329843
 H    2.572311    0.306297   -1.509936
 H    5.024779    0.646609    0.276117
 H    4.971534    0.544782   -1.551702
 H    0.577827    0.205354   -1.334638
 H   -0.372508    2.510667   -1.194707
