83 
6bid_ligand_ani-2x.xyz
 C    4.157341   -0.433040   -0.777989
 O    4.764210   -0.870695    0.182599
 O    4.673798    0.450170   -1.665053
 C    5.962450    0.983970   -1.302108
 C    5.837770    2.144926   -0.343421
 C    5.689822    3.444729   -0.829842
 C    5.564815    4.518888    0.048259
 C    5.584638    4.300192    1.421246
 C    5.718871    3.002245    1.913411
 C    5.833653    1.929443    1.035142
 N   -0.588263    3.970421    1.923977
 C   -0.055016    4.318739    0.623060
 C    1.460004    4.082007    0.598187
 N    1.821050    2.747272    1.038038
 O    0.302838   -0.544657   -1.680766
 C    0.581835   -1.328820   -0.788541
 C    2.002168   -1.435430   -0.213818
 C    2.036488   -0.873123    1.224196
 C    1.993795    0.616015    1.305095
 C    1.591235    1.572236    0.405207
 N    2.305855    2.539800    2.262150
 N    2.427767    1.255934    2.433254
 N    2.887737   -0.756829   -1.127597
 N   -3.219268    0.005737    0.519974
 C   -3.517989    1.263407    1.183477
 C   -2.982875    2.453755    0.365589
 C   -2.918667    3.782506    1.137623
 C   -1.888169    3.724692    2.255602
 O   -2.193553    3.423587    3.400624
 C   -5.022950    1.318615    1.404509
 O   -5.639033    1.076372    0.146776
 N   -0.350432   -2.161532   -0.227713
 C   -1.744880   -1.774888   -0.314861
 C   -2.004993   -0.593422    0.644747
 O   -1.169747   -0.227095    1.460043
 C   -2.685498   -2.953337   -0.031794
 C   -2.396835   -4.225967   -0.841806
 C   -3.503595   -5.259434   -0.600419
 C   -3.268231   -6.553976   -1.381606
 C   -3.119665   -6.268723   -2.877962
 C   -2.007146   -5.248492   -3.129509
 C   -2.239106   -3.956056   -2.342686
 H    6.563411    0.178001   -0.872414
 H    6.395062    1.303933   -2.253229
 H    5.675817    3.616200   -1.904387
 H    5.458450    5.528886   -0.342841
 H    5.493738    5.138185    2.109691
 H    5.723265    2.825672    2.987059
 H    5.911129    0.910590    1.410718
 H    0.053978    3.794044    2.688844
 H   -0.519451    3.705257   -0.160002
 H   -0.257971    5.367963    0.373143
 H    1.959801    4.776587    1.275152
 H    1.849261    4.229461   -0.414206
 H    2.282584   -2.497544   -0.152060
 H    2.964564   -1.194821    1.699096
 H    1.207436   -1.283025    1.810092
 H    1.177008    1.518297   -0.594464
 H    2.440872   -0.215433   -1.856317
 H   -3.851968   -0.259247   -0.222554
 H   -3.019381    1.248483    2.154619
 H   -1.978128    2.177871    0.021552
 H   -3.605218    2.578450   -0.529182
 H   -3.884421    3.991889    1.604785
 H   -2.699414    4.605711    0.448550
 H   -5.301956    0.545857    2.135380
 H   -5.321115    2.296947    1.810635
 H   -6.593078    1.159862    0.258987
 H   -0.084079   -2.526853    0.677475
 H   -1.905637   -1.414876   -1.337527
 H   -2.653421   -3.195190    1.040143
 H   -3.714253   -2.627782   -0.238816
 H   -1.449467   -4.660717   -0.488196
 H   -3.588988   -5.465994    0.474713
 H   -4.463919   -4.820307   -0.912826
 H   -4.085531   -7.263049   -1.202894
 H   -2.349566   -7.034663   -1.014061
 H   -2.923492   -7.196025   -3.430025
 H   -4.068800   -5.868895   -3.264043
 H   -1.045501   -5.682579   -2.818367
 H   -1.918889   -5.029766   -4.200558
 H   -3.149403   -3.460126   -2.715051
 H   -1.405361   -3.261398   -2.511510
