83 
6bid_ligand_aiqm1.xyz
 C    4.123911   -0.411605   -0.949001
 O    4.740012   -1.129150   -0.188922
 O    4.680727    0.516488   -1.756520
 C    6.041983    0.872810   -1.428080
 C    6.076427    2.013054   -0.440824
 C    6.512253    3.278451   -0.835781
 C    6.549660    4.332855    0.075356
 C    6.134646    4.133291    1.389735
 C    5.688586    2.874816    1.789195
 C    5.660609    1.817677    0.880622
 N   -1.008419    3.993170    2.108464
 C   -0.196671    4.387091    0.976133
 C    1.281171    4.207676    1.269841
 N    1.628820    2.829210    1.537826
 O    0.166303   -0.236926   -1.514239
 C    0.512628   -1.094143   -0.716122
 C    1.951774   -1.206759   -0.219397
 C    2.098883   -0.762701    1.251494
 C    1.983623    0.702507    1.509814
 C    1.407739    1.724107    0.787704
 N    2.303334    2.526281    2.649875
 N    2.524671    1.241121    2.641621
 N    2.789379   -0.454897   -1.124769
 N   -3.330556   -0.013085    0.298032
 C   -3.654106    1.282972    0.888116
 C   -2.978850    2.408599    0.087446
 C   -3.060516    3.779461    0.770365
 C   -2.352049    3.768698    2.111823
 O   -2.952970    3.534657    3.148925
 C   -5.162030    1.419160    0.950059
 O   -5.658595    1.284043   -0.384575
 N   -0.343436   -2.030154   -0.231103
 C   -1.771717   -1.784535   -0.339427
 C   -2.144525   -0.599647    0.563976
 O   -1.405968   -0.239689    1.467365
 C   -2.564383   -3.037292    0.022697
 C   -2.303064   -4.245154   -0.879471
 C   -3.062107   -5.465503   -0.351649
 C   -2.811857   -6.701825   -1.210566
 C   -3.192156   -6.432228   -2.664157
 C   -2.435811   -5.219722   -3.201522
 C   -2.689902   -3.986117   -2.337314
 H    6.546248   -0.007976   -1.035588
 H    6.487807    1.169779   -2.376953
 H    6.830063    3.441119   -1.860484
 H    6.899963    5.306543   -0.245342
 H    6.161967    4.951674    2.097891
 H    5.343855    2.716632    2.804162
 H    5.320048    0.836765    1.189847
 H   -0.579426    3.943229    3.019388
 H   -0.459869    3.795788    0.097819
 H   -0.357594    5.439911    0.719252
 H    1.568900    4.767647    2.158112
 H    1.865678    4.572505    0.424806
 H    2.240187   -2.261114   -0.249039
 H    3.085431   -1.076977    1.591486
 H    1.367641   -1.299049    1.863956
 H    0.871714    1.722430   -0.146695
 H    2.339594    0.191102   -1.748868
 H   -3.811386   -0.246330   -0.555578
 H   -3.274555    1.288653    1.907017
 H   -1.929670    2.134547   -0.058515
 H   -3.446693    2.468140   -0.899311
 H   -4.101343    4.042128    0.960748
 H   -2.644282    4.548580    0.117437
 H   -5.571558    0.630657    1.586727
 H   -5.425427    2.388278    1.376595
 H   -6.591277    1.495924   -0.387340
 H   -0.058577   -2.472541    0.629330
 H   -1.975388   -1.499553   -1.370000
 H   -2.329005   -3.303722    1.060102
 H   -3.632919   -2.798462   -0.009074
 H   -1.230639   -4.480208   -0.856934
 H   -2.784656   -5.658543    0.688575
 H   -4.135174   -5.237496   -0.356589
 H   -3.373293   -7.551227   -0.817283
 H   -1.751233   -6.969117   -1.159570
 H   -2.992952   -7.310505   -3.281306
 H   -4.268454   -6.237645   -2.722327
 H   -1.363196   -5.437988   -3.205146
 H   -2.722393   -5.018797   -4.235469
 H   -3.756522   -3.730655   -2.379976
 H   -2.138868   -3.131191   -2.738507
