80 
6bik_ligand_ani-2x.xyz
 C  105.160970  -50.859575    0.628493
 C  104.500488  -47.179844   -7.415150
 C  105.376452  -49.253417   -1.335044
 C  104.253148  -49.841566   -1.924256
 C  103.844692  -47.951815   -5.151463
 C  103.768728  -49.403559   -3.148740
 C  104.404428  -48.371328   -3.833449
 C  105.518192  -47.762952   -3.250036
 C  105.991593  -48.198453   -2.022182
 C  107.407566  -50.165641   -0.176247
 C  105.919595  -48.522622    1.003516
 C  105.951295  -49.699873    0.010805
 O  102.664848  -48.152714   -5.431101
 N  104.729647  -47.365987   -6.019052
 C  105.360897  -47.812857   -8.312850
 C  105.163404  -47.686711   -9.681964
 C  104.105199  -46.927788  -10.160935
 C  103.234301  -46.288673   -9.276023
 C  103.477750  -46.345004   -7.881618
 C  102.685154  -45.473967   -6.915159
 O  101.416606  -46.029758   -6.603171
 C  102.096228  -45.544936   -9.860328
 C  102.213602  -44.789620  -11.001930
 C  101.113290  -44.117579  -11.554718
 C   99.823281  -44.103868  -10.780404
 O   98.793514  -43.578041  -11.162639
 N   99.910960  -44.710968   -9.544497
 N  100.852978  -45.740433   -9.309907
 C   98.706535  -44.832666   -8.743310
 N  101.108904  -43.373793  -12.650111
 C  101.905116  -43.641195  -13.697298
 C  101.909503  -42.664146  -14.740037
 C  102.655800  -42.888790  -15.867703
 C  103.385829  -44.084105  -15.982221
 C  103.282365  -44.998392  -14.940606
 N  102.605329  -44.791121  -13.816754
 C  104.190203  -44.476235  -17.174944
 O  104.258794  -45.647204  -17.528617
 N  104.863977  -43.503327  -17.859111
 C  105.276465  -42.211744  -17.313391
 C  106.730321  -41.950014  -17.683667
 O  106.942141  -41.918604  -19.083428
 C  106.037682  -42.710582  -19.832980
 C  105.554878  -43.931222  -19.074772
 H  105.170315  -51.743518   -0.020129
 H  105.608584  -51.144797    1.586762
 H  104.117883  -50.579947    0.818077
 H  103.739571  -50.655531   -1.421685
 H  102.888971  -49.863698   -3.587212
 H  106.003677  -46.919557   -3.735397
 H  106.867315  -47.705930   -1.603986
 H  108.039551  -49.376124   -0.595935
 H  107.837504  -50.463326    0.787108
 H  107.455932  -51.027049   -0.852702
 H  106.354897  -48.823670    1.963420
 H  106.484791  -47.660634    0.634301
 H  104.889301  -48.193998    1.183743
 H  105.704431  -47.476019   -5.780157
 H  106.179375  -48.424364   -7.937852
 H  105.837438  -48.182806  -10.374292
 H  103.931986  -46.834629  -11.231462
 H  102.492860  -44.495406   -7.371127
 H  103.248583  -45.307001   -5.989624
 H  101.613273  -46.880290   -6.160412
 H  103.174308  -44.692409  -11.491218
 H  100.882411  -45.958624   -8.311292
 H   98.091558  -43.955133   -8.943679
 H   98.136447  -45.733600   -9.009122
 H   98.966281  -44.858943   -7.679258
 H  101.327074  -41.762842  -14.593667
 H  102.663192  -42.152563  -16.669395
 H  103.803990  -45.948377  -15.019014
 H  105.174789  -42.224891  -16.225645
 H  104.653240  -41.393967  -17.703259
 H  107.365975  -42.719729  -17.219571
 H  107.047329  -40.977000  -17.295506
 H  106.568124  -43.008621  -20.743091
 H  105.166980  -42.108331  -20.136955
 H  104.853986  -44.505956  -19.684589
 H  106.396130  -44.596924  -18.835384
