80 
6bik_ligand_aiqm1.xyz
 C  106.722183  -50.153954    0.430044
 C  103.555910  -48.206812   -7.655702
 C  105.226091  -49.467433   -1.507819
 C  106.144877  -50.047922   -2.392964
 C  104.642113  -49.443000   -5.786894
 C  105.925468  -50.029833   -3.766261
 C  104.796080  -49.417145   -4.302323
 C  103.866009  -48.845862   -3.434367
 C  104.081065  -48.876327   -2.062222
 C  105.459269  -48.016719    0.521915
 C  104.251215  -50.209059    0.678719
 C  105.419437  -49.466074    0.010245
 O  105.164224  -50.303262   -6.473649
 N  103.910987  -48.407448   -6.310607
 C  103.469516  -49.261660   -8.571121
 C  103.042132  -49.001677   -9.868441
 C  102.648433  -47.724769  -10.250935
 C  102.713928  -46.674211   -9.334289
 C  103.232807  -46.896054   -8.048615
 C  103.508654  -45.745600   -7.118519
 O  102.476287  -45.693633   -6.118053
 C  102.210747  -45.331302   -9.717943
 C  102.587567  -44.663928  -10.824397
 C  102.036433  -43.345885  -11.122419
 C  101.250906  -42.674848  -10.016707
 O  100.854894  -41.530020  -10.091495
 N  101.114777  -43.406860   -8.851462
 N  101.184261  -44.826565   -8.924123
 C  100.157256  -42.938597   -7.864604
 N  102.120230  -42.683926  -12.219692
 C  102.839055  -43.160337  -13.321384
 C  102.190123  -43.195382  -14.561290
 C  102.908713  -43.573553  -15.680642
 C  104.262655  -43.900772  -15.540596
 C  104.803208  -43.853009  -14.257661
 N  104.126050  -43.483506  -13.166877
 C  105.135659  -44.369689  -16.660014
 O  105.889764  -45.321411  -16.513350
 N  105.055971  -43.709659  -17.851992
 C  104.537928  -42.351467  -18.015355
 C  105.555708  -41.538698  -18.796794
 O  105.764734  -42.055079  -20.103957
 C  105.568738  -43.461873  -20.201572
 C  105.929630  -44.188718  -18.922746
 H  107.597524  -49.653394    0.010229
 H  106.808557  -50.120588    1.517550
 H  106.741180  -51.202645    0.126122
 H  107.036653  -50.528591   -2.017570
 H  106.624640  -50.497034   -4.446607
 H  102.948225  -48.406967   -3.811927
 H  103.335249  -48.435297   -1.411558
 H  104.550227  -47.468555    0.265672
 H  105.559409  -48.009296    1.610529
 H  106.310314  -47.481299    0.095948
 H  104.365204  -50.179731    1.765711
 H  103.287064  -49.760627    0.431054
 H  104.230025  -51.254161    0.364178
 H  103.584878  -47.705391   -5.669302
 H  103.753790  -50.258697   -8.270453
 H  102.994529  -49.810220  -10.586004
 H  102.279305  -47.532224  -11.249372
 H  103.544341  -44.805450   -7.667143
 H  104.480989  -45.888995   -6.639798
 H  102.648369  -44.931475   -5.562183
 H  103.336647  -45.079757  -11.478293
 H  101.169679  -45.208107   -7.986132
 H  100.161358  -41.854465   -7.897245
 H   99.153297  -43.309985   -8.078998
 H  100.474671  -43.274401   -6.875696
 H  101.144294  -42.930675  -14.617172
 H  102.427410  -43.624237  -16.649947
 H  105.838351  -44.135011  -14.113529
 H  104.395004  -41.897901  -17.034240
 H  103.578660  -42.346546  -18.540373
 H  106.501639  -41.524824  -18.242877
 H  105.210346  -40.512227  -18.917369
 H  106.195473  -43.804380  -21.023931
 H  104.521873  -43.675461  -20.451184
 H  105.776463  -45.262506  -19.036968
 H  106.983368  -44.034245  -18.670396
