48 
6bkx_ligand_xtb.xyz
 C   -3.081030   -1.069504    0.914435
 C   -2.215748   -2.173155    1.519809
 C   -0.756407   -1.833419    1.508178
 C    0.167727   -2.579116    2.237906
 C    6.253860    0.666809    0.520433
 C    4.374445    1.855224   -0.360276
 C   -3.350505    0.343983   -1.217367
 C   -4.718163   -0.274932   -1.496583
 C   -1.258140    1.261112   -2.362411
 C   -1.449034    2.641001   -1.993225
 C    5.744682    1.730374   -0.206650
 C    5.402469   -0.262886    1.083919
 C    3.513263    0.929986    0.199587
 C    4.021012   -0.143517    0.926116
 C   -0.218109   -0.794050    0.753358
 C    1.876361   -1.305308    1.482214
 C   -2.635181    0.611194   -2.522203
 C   -0.382063    0.478751   -1.370323
 C   -2.427027   -0.557474   -0.368466
 C   -1.093165    0.147526   -0.051085
 C   -1.234173    1.405148    0.820387
 N   -1.613783    3.744765   -1.742140
 N    1.459136   -2.334609    2.235278
 N    1.082610   -0.534026    0.746662
 N    3.217222   -1.106966    1.520672
 O   -3.070481    0.330574   -3.606127
 H   -4.066653   -1.481024    0.701441
 H   -3.209340   -0.251318    1.623164
 H   -2.354811   -3.095098    0.944065
 H   -2.533173   -2.385201    2.543844
 H   -0.152169   -3.411316    2.853805
 H    7.320803    0.560585    0.650129
 H    3.968461    2.684723   -0.920586
 H   -3.490808    1.302736   -0.707438
 H   -5.350852   -0.247453   -0.614491
 H   -4.611265   -1.304075   -1.831565
 H   -5.210550    0.284302   -2.288803
 H   -0.771555    1.266985   -3.346865
 H    6.411158    2.456186   -0.646973
 H    5.803689   -1.090677    1.652120
 H    2.447511    1.024625    0.087979
 H    0.528039    1.043057   -1.166325
 H   -0.086964   -0.457004   -1.852099
 H   -2.190908   -1.438110   -0.982657
 H   -1.617926    1.154091    1.806241
 H   -0.251467    1.851934    0.954218
 H   -1.885443    2.148784    0.372307
 H    3.694247   -1.794214    2.089991
