55 
6bl1_ligand_ani-2x.xyz
 C   -2.609301    0.882780   -2.232905
 C   -1.295304    1.606512   -1.888166
 C   -0.701046    2.206721   -3.089670
 C   -0.327928    0.650684   -1.178204
 C   -1.040651    1.183747    1.195448
 C   -1.037008    3.278551    3.098681
 C   -2.221668    1.612046    1.808782
 C   -0.504745   -1.948146    1.542734
 C   -0.009387   -1.023567    0.631845
 C    5.489734   -1.382497   -0.507605
 C    5.726787    0.264063   -2.252650
 C    0.152953    2.853527    2.517024
 C   -2.221979    2.646366    2.741453
 C    6.296139   -0.606381   -1.328384
 C    4.341387    0.343397   -2.340344
 C    0.144733    1.821893    1.586986
 C    3.519524   -0.424151   -1.521115
 C    0.400018   -2.922102    1.959808
 C    4.093507   -1.292894   -0.586585
 C    2.035160   -2.032344    0.674607
 C   -1.916977   -1.795766    2.030493
 C   -2.892163   -1.428203    0.897090
 C   -3.279903    0.220060   -1.038133
 C   -2.255465   -0.640895   -0.264143
 C   -0.928991    0.074940    0.120946
 C   -4.502519   -0.578100   -1.488876
 N   -0.213027    2.677485   -4.025892
 N    1.657449   -2.993556    1.544410
 N    1.265590   -1.053322    0.215482
 N    3.344364   -2.121245    0.265137
 O   -3.055487    0.860154   -3.353873
 H   -1.551025    2.408823   -1.182897
 H    0.600535    1.179812   -0.954202
 H   -0.070647   -0.177607   -1.843516
 H   -1.039264    4.086725    3.824688
 H   -3.169148    1.138469    1.576054
 H    5.943089   -2.061174    0.211876
 H    6.353775    0.872154   -2.898305
 H    1.093049    3.330300    2.783118
 H   -3.162903    2.956129    3.187593
 H    7.377344   -0.686234   -1.245759
 H    3.880608    1.018878   -3.057627
 H    1.086735    1.483711    1.154917
 H    2.441331   -0.354049   -1.601454
 H    0.085851   -3.690137    2.669363
 H   -1.925098   -0.985059    2.768125
 H   -2.239623   -2.701922    2.549953
 H   -3.324202   -2.341799    0.474048
 H   -3.727562   -0.862228    1.319871
 H   -3.596096    1.041540   -0.386081
 H   -1.910237   -1.392491   -0.989197
 H   -4.206559   -1.432189   -2.108785
 H   -5.170781    0.045872   -2.087125
 H   -5.069050   -0.956215   -0.632396
 H    3.845983   -2.861165    0.733658
