38 
6bny_ligand_xtb.xyz
 C   -4.151148  -27.682680   -5.714867
 C   -3.436620  -28.937786   -6.220468
 C   -3.848717  -30.165422   -5.405279
 C   -3.710503  -29.153885   -7.687635
 C   -5.009057  -29.370903   -8.155750
 C   -5.265484  -29.568251   -9.494500
 C   -4.217830  -29.553590  -10.413091
 C   -3.563397  -29.737856  -12.636912
 C   -3.114675  -29.928827  -14.875061
 C   -1.718242  -29.814395  -14.654101
 C   -0.753237  -29.932394  -15.722136
 C   -1.290411  -29.585060  -13.358516
 C   -2.210579  -29.540981  -12.311613
 C   -1.787356  -29.324974  -10.921974
 C   -2.910266  -29.339233   -9.969508
 C   -2.679899  -29.142358   -8.606457
 N   -3.988601  -29.903231  -13.880984
 N   -3.644326  -30.113181  -16.121764
 N   -0.882360  -30.714789  -16.833719
 N    0.237927  -30.564523  -17.552878
 N    0.977196  -29.750190  -16.931645
 N    0.419118  -29.337666  -15.805292
 O   -4.538608  -29.753813  -11.722131
 O   -0.627768  -29.158475  -10.593665
 H   -3.892991  -27.499387   -4.674543
 H   -3.855735  -26.816325   -6.302264
 H   -5.230253  -27.794169   -5.785173
 H   -2.358826  -28.790985   -6.096100
 H   -3.584980  -30.025201   -4.359672
 H   -4.921079  -30.332473   -5.468263
 H   -3.339944  -31.053098   -5.774172
 H   -5.834170  -29.385607   -7.460325
 H   -6.267500  -29.735613   -9.856534
 H   -0.240661  -29.455322  -13.142992
 H   -1.657172  -28.979769   -8.298725
 H   -4.651342  -30.045447  -16.137960
 H   -3.173768  -29.681231  -16.901622
 H   -1.610737  -31.362909  -17.088708
