42 
6bod_ligand_ani-2x.xyz
 C  -25.267628  -18.060509   -2.010695
 C  -25.799721  -16.801762   -2.657340
 C  -26.410649  -14.630433   -1.951492
 C  -26.518374  -13.726924   -0.788023
 C  -26.164283  -14.141418    0.481836
 C  -26.275526  -13.268895    1.563201
 C  -25.907279  -13.676098    2.931496
 C  -26.092684  -12.615914    3.947482
 C  -25.790720  -12.853944    5.294443
 C  -25.958154  -11.867994    6.256797
 C  -25.593939  -12.054022    7.722433
 C  -24.177912  -11.536133    8.013195
 C  -25.747499  -13.496721    8.199766
 C  -26.440636  -10.615226    5.835058
 C  -26.753255  -10.358356    4.511315
 C  -26.576172  -11.368495    3.565846
 C  -26.756375  -11.979174    1.287329
 C  -26.994687  -12.386727   -0.936474
 N  -27.103975  -11.543480    0.097751
 N  -27.358598  -11.906249   -2.133384
 O  -25.945801  -15.838221   -1.603615
 O  -26.697894  -14.354561   -3.104828
 O  -25.485865  -14.788897    3.204311
 O  -26.899793  -11.058311    2.272660
 H  -24.303248  -17.865741   -1.532861
 H  -25.966644  -18.424887   -1.252474
 H  -25.131028  -18.843769   -2.762277
 H  -26.772103  -16.957975   -3.133574
 H  -25.117011  -16.401748   -3.412729
 H  -25.796221  -15.149486    0.650299
 H  -25.430431  -13.849842    5.542041
 H  -26.297683  -11.435350    8.295143
 H  -23.436867  -12.101052    7.436138
 H  -24.077160  -10.478610    7.746047
 H  -23.936604  -11.644895    9.076661
 H  -26.746831  -13.883828    7.975883
 H  -25.013014  -14.152158    7.718345
 H  -25.587230  -13.561391    9.281596
 H  -26.568523   -9.827337    6.575019
 H  -27.130294   -9.395072    4.183687
 H  -27.296876  -12.497362   -2.948514
 H  -27.685512  -10.956734   -2.177100
