42 
6boe_ligand_aiqm1.xyz
 C   -5.255914  -28.363222   -5.727774
 C   -3.978385  -28.780131   -6.449882
 C   -2.791117  -27.944498   -5.953840
 C   -4.082120  -28.704850   -7.963351
 C   -5.056379  -27.940167   -8.628128
 C   -5.099972  -27.859021  -10.015171
 C   -4.157880  -28.552459  -10.761081
 C   -3.385633  -29.069562  -12.923595
 C   -2.789984  -29.494819  -15.087959
 C   -1.666143  -30.274827  -14.674387
 C   -1.499319  -30.470312  -13.312105
 C   -2.351600  -29.863794  -12.397797
 C   -2.191956  -30.058317  -10.950177
 C   -3.179530  -29.327961  -10.141179
 C   -3.157612  -29.391115   -8.744769
 C   -0.856706  -30.994815  -15.677973
 C    1.321071  -30.645352  -14.512122
 N   -3.605941  -28.886184  -14.216072
 N   -3.042918  -29.269472  -16.397289
 N    0.461987  -31.294071  -15.366776
 N    1.286778  -29.349428  -14.153843
 N    2.350604  -29.105316  -13.349009
 N    2.995242  -30.211614  -13.265402
 N    2.384487  -31.196967  -13.979654
 O   -4.259465  -28.426526  -12.128256
 O   -1.314735  -30.761669  -10.476535
 O   -1.303679  -31.372487  -16.747054
 H   -5.155338  -28.559453   -4.660116
 H   -5.445955  -27.293695   -5.846965
 H   -6.126871  -28.909588   -6.092711
 H   -3.773701  -29.825849   -6.199613
 H   -2.668137  -28.056465   -4.875305
 H   -1.861556  -28.250576   -6.436016
 H   -2.954110  -26.886300   -6.171383
 H   -5.799569  -27.398178   -8.059263
 H   -5.849092  -27.269122  -10.524838
 H   -0.707729  -31.098987  -12.922286
 H   -2.385513  -29.997929   -8.287787
 H   -3.918149  -28.812492  -16.592058
 H   -2.681297  -29.939133  -17.059765
 H    0.884657  -31.990705  -15.963390
 H    0.628180  -28.618573  -14.364324
