46 
6bqa_ligand_xtb.xyz
 C   -4.524201   13.880744    8.232282
 N  -10.020968   18.761080    5.396539
 O  -11.815495   20.174257    5.273706
 C   -4.508989   16.297495    8.220643
 N  -10.088778   22.233286    6.523940
 C   -4.848176   17.565465    7.499555
 C   -6.168105   17.882973    7.208570
 C   -6.492167   19.098717    6.613250
 C   -5.466898   19.991746    6.307817
 C   -4.153636   19.682269    6.609056
 C   -3.839641   18.477598    7.213770
 C   -7.886721   19.428099    6.298258
 C   -8.724810   18.510679    5.744441
 C  -10.646594   19.988308    5.589856
 C  -10.820011   17.685319    4.845897
 C  -11.378563   16.781837    5.954057
 C  -12.203800   15.679099    5.374154
 C  -11.951703   14.394030    5.534821
 C   -9.772659   20.954531    6.181663
 C   -9.006246   22.813143    7.096523
 C   -7.969790   21.917335    7.129137
 C   -8.441564   20.721585    6.541152
 O   -4.036716   16.320345    9.342815
 N   -4.770661   15.138882    7.567599
 C   -5.214779   15.037232    6.202028
 H   -4.195402   14.094775    9.247279
 H   -5.438646   13.283863    8.260917
 H   -3.747465   13.315851    7.710940
 H  -10.993216   22.648349    6.371557
 H   -6.954962   17.191086    7.473090
 H   -5.705500   20.924030    5.818984
 H   -3.368328   20.385176    6.372836
 H   -2.818524   18.235697    7.466387
 H   -8.379759   17.513168    5.514052
 H  -11.647193   18.148949    4.302421
 H  -10.210920   17.100024    4.151926
 H  -10.557054   16.369838    6.544680
 H  -12.001158   17.396329    6.609876
 H  -13.051287   16.002207    4.784528
 H  -12.574065   13.630859    5.100263
 H  -11.114746   14.048405    6.120136
 H   -9.038087   23.826572    7.446910
 H   -6.996075   22.089773    7.541031
 H   -4.548315   14.368997    5.649483
 H   -6.227100   14.622989    6.156322
 H   -5.207529   16.013007    5.722854
