46 
6bqa_ligand_dft.xyz
 C   -3.640599   13.938915    8.415225
 N  -10.287186   18.799511    5.392505
 O  -12.017676   20.321298    5.361778
 C   -4.933429   15.947300    8.057353
 N  -10.143222   22.269937    6.522384
 C   -5.126603   17.263299    7.354053
 C   -6.434164   17.687257    7.123954
 C   -6.698939   18.923974    6.531646
 C   -5.617966   19.754663    6.209450
 C   -4.313472   19.355617    6.474805
 C   -4.062007   18.109608    7.040243
 C   -8.087675   19.345289    6.244522
 C   -8.982332   18.474466    5.705029
 C  -10.842495   20.061271    5.616490
 C  -11.180146   17.769493    4.866697
 C  -11.968868   17.071971    5.981308
 C  -12.915267   16.049338    5.422602
 C  -12.834384   14.740046    5.641376
 C   -9.887164   20.975039    6.172250
 C   -9.015186   22.807401    7.070717
 C   -8.018188   21.858396    7.077253
 C   -8.568693   20.677810    6.498910
 O   -5.658950   15.643073    8.994349
 N   -3.899929   15.142742    7.647999
 C   -3.310384   15.161466    6.321895
 H   -3.977111   14.087313    9.440203
 H   -4.171753   13.074032    7.994857
 H   -2.565777   13.729546    8.402700
 H  -11.038483   22.715030    6.396618
 H   -7.252117   17.048605    7.443429
 H   -5.805436   20.714767    5.737722
 H   -3.486788   20.017151    6.233663
 H   -3.042591   17.803310    7.256621
 H   -8.701247   17.455753    5.461171
 H  -11.865568   18.256704    4.170155
 H  -10.578378   17.044680    4.311010
 H  -11.270745   16.602495    6.684870
 H  -12.526044   17.842736    6.526935
 H  -13.708956   16.436188    4.782757
 H  -13.544206   14.043267    5.205325
 H  -12.058526   14.316006    6.275541
 H   -9.001439   23.829065    7.421376
 H   -7.020103   21.991567    7.468178
 H   -3.504424   14.205805    5.817218
 H   -3.738350   15.958684    5.716014
 H   -2.224036   15.304116    6.376843
