47 
6bsk_ligand_aiqm1.xyz
 O  -38.385718    3.475343    3.598579
 C  -38.505933    2.612881    2.773530
 O  -37.436500    1.858982    2.420624
 C  -39.802125    2.297596    2.093136
 C  -39.873861    1.641237    0.862627
 C  -41.108345    1.394572    0.272698
 C  -40.977992    2.716252    2.718588
 C  -42.212688    2.449152    2.143407
 C  -42.288464    1.778000    0.917527
 C  -43.596773    1.464173    0.299064
 N  -43.647930    1.433170   -1.042228
 C  -44.723600    1.185377    1.067993
 N  -45.903234    0.878938    0.511992
 C  -45.958281    0.863191   -0.812504
 C  -44.820956    1.146358   -1.586907
 N  -44.896874    1.133911   -2.977096
 C  -43.964382    1.543551   -3.914467
 C  -42.685404    2.088276   -3.773537
 N  -46.041048    0.674269   -3.583531
 C  -45.838605    0.778070   -4.874829
 C  -44.552888    1.320149   -5.168363
 C  -43.849623    1.647229   -6.337550
 C  -42.591033    2.186348   -6.213865
 C  -41.999037    2.417922   -4.939956
 N  -40.758520    3.028640   -4.899299
 C  -39.913447    2.999722   -3.712502
 C  -39.414413    1.590247   -3.387961
 C  -38.748734    3.954379   -3.919880
 H  -37.721681    1.142061    1.847023
 H  -38.967503    1.355456    0.339959
 H  -41.172746    0.902710   -0.689750
 H  -40.900005    3.254597    3.653298
 H  -43.115357    2.790753    2.632936
 H  -44.677196    1.185048    2.149300
 H  -46.891662    0.620500   -1.294234
 H  -42.253271    2.260336   -2.803193
 H  -46.611238    0.467527   -5.560336
 H  -44.283151    1.486003   -7.315712
 H  -42.033529    2.458621   -7.102692
 H  -40.241706    2.971603   -5.762589
 H  -40.514742    3.358768   -2.876488
 H  -40.244116    0.883041   -3.358786
 H  -38.701871    1.253662   -4.144852
 H  -38.915634    1.578580   -2.415458
 H  -38.137237    3.622161   -4.763931
 H  -39.106933    4.962120   -4.124817
 H  -38.116114    3.982613   -3.032665
