47 
6bsk_ligand_ani-2x.xyz
 O  -38.006928    3.048310    3.181092
 C  -38.301338    2.150155    2.436397
 O  -37.380882    1.217158    2.099438
 C  -39.664758    1.983867    1.840758
 C  -39.893532    1.276034    0.657174
 C  -41.181281    1.154173    0.159528
 C  -40.737832    2.593727    2.490235
 C  -42.027561    2.460898    1.999847
 C  -42.260669    1.735095    0.832201
 C  -43.618381    1.580036    0.260744
 N  -43.668742    1.422299   -1.066354
 C  -44.780864    1.561361    1.026138
 N  -45.984895    1.372911    0.471950
 C  -46.029675    1.213138   -0.840226
 C  -44.859903    1.250227   -1.616043
 N  -44.916799    1.090456   -2.997399
 C  -43.957508    1.454696   -3.921003
 C  -42.764672    2.162729   -3.766327
 N  -45.982960    0.486555   -3.597825
 C  -45.697904    0.430062   -4.877028
 C  -44.428104    1.017498   -5.166501
 C  -43.631985    1.236431   -6.310682
 C  -42.430646    1.881248   -6.162240
 C  -41.977011    2.347990   -4.892509
 N  -40.765659    3.024886   -4.832700
 C  -40.110167    3.346582   -3.575333
 C  -39.575940    2.121344   -2.821702
 C  -38.992725    4.348154   -3.853329
 H  -37.803632    0.498657    1.608271
 H  -39.067810    0.848532    0.087935
 H  -41.378878    0.599120   -0.753533
 H  -40.539225    3.169197    3.389267
 H  -42.850153    2.945395    2.520187
 H  -44.752516    1.668430    2.108081
 H  -46.998505    1.053378   -1.303648
 H  -42.484721    2.538979   -2.794799
 H  -46.397129   -0.020863   -5.568673
 H  -43.954626    0.901626   -7.292241
 H  -41.804164    2.055502   -7.034323
 H  -40.138066    2.813648   -5.595530
 H  -40.866753    3.833329   -2.948373
 H  -40.350802    1.353684   -2.720460
 H  -38.724824    1.674978   -3.351214
 H  -39.245192    2.403966   -1.815289
 H  -38.228424    3.885974   -4.490414
 H  -39.380540    5.233911   -4.365551
 H  -38.506817    4.668635   -2.925695
