47 
6bsk_ligand_xtb.xyz
 O  -38.413354    3.622188    3.432335
 C  -38.531641    2.744029    2.623530
 O  -37.465919    2.011182    2.244745
 C  -39.834829    2.390055    1.992015
 C  -39.929611    1.786452    0.738945
 C  -41.167072    1.498127    0.201519
 C  -41.001997    2.711329    2.682851
 C  -42.238456    2.406793    2.152595
 C  -42.334635    1.790467    0.905671
 C  -43.633044    1.453752    0.312112
 N  -43.698857    1.463827   -1.021166
 C  -44.749975    1.108175    1.070823
 N  -45.911729    0.807570    0.502780
 C  -45.986481    0.839408   -0.808270
 C  -44.860490    1.163326   -1.588725
 N  -44.936205    1.180322   -2.957617
 C  -43.979538    1.559145   -3.874054
 C  -42.689899    2.031772   -3.707492
 N  -46.077619    0.793056   -3.583908
 C  -45.877692    0.905751   -4.866276
 C  -44.571164    1.387356   -5.145444
 C  -43.834089    1.697205   -6.289919
 C  -42.555802    2.161947   -6.131700
 C  -41.965716    2.342767   -4.856670
 N  -40.705264    2.873276   -4.806893
 C  -39.848234    2.875407   -3.642008
 C  -39.279536    1.479511   -3.362529
 C  -38.727934    3.886483   -3.866563
 H  -37.706491    1.297165    1.639784
 H  -39.043084    1.568019    0.156922
 H  -41.248801    1.033464   -0.768592
 H  -40.912498    3.200248    3.640869
 H  -43.133838    2.669492    2.694578
 H  -44.719208    1.046038    2.148600
 H  -46.933358    0.606508   -1.269847
 H  -42.288718    2.161133   -2.719293
 H  -46.654626    0.646939   -5.558637
 H  -44.263965    1.571489   -7.271878
 H  -41.965379    2.410056   -7.002916
 H  -40.213168    2.893961   -5.687840
 H  -40.446220    3.201133   -2.784125
 H  -40.086336    0.764507   -3.219086
 H  -38.670854    1.146606   -4.201035
 H  -38.658620    1.495304   -2.471060
 H  -38.096802    3.578265   -4.698152
 H  -39.144265    4.865508   -4.089377
 H  -38.109088    3.967586   -2.977301
