85 
6bsl_ligand_ani-2x.xyz
 C   -3.218736   -1.142084   -0.748248
 C   -2.803572   -3.667412   -0.306240
 C   -3.278071   -5.089578   -0.587744
 C   -2.622172    0.889135    3.690705
 C   -1.305078    0.352027    3.131737
 C   -0.955651    0.897555    1.743505
 C   -1.987338    0.623751    0.642033
 C   -2.322339   -0.858561    0.464493
 C   -3.774883   -2.602920   -0.810571
 N   -5.075572   -2.720586   -0.142645
 O   -5.032670   -2.680974    1.255429
 C   -6.137824   -2.037405   -0.671301
 O   -6.160983   -1.610552   -1.813274
 C   -2.518466   -0.843970   -2.076602
 O   -1.295849   -0.886162   -2.195488
 N   -3.359748   -0.535540   -3.107554
 C   -2.896131   -0.437288   -4.490940
 N   -1.696223    0.358182   -4.581717
 C   -1.589606    1.473826   -5.343463
 O   -2.384119    1.836573   -6.197099
 C   -0.372980    2.253715   -5.031461
 C    0.201571    3.371779   -5.543215
 C    1.334290    3.649306   -4.720187
 C    1.367063    2.679573   -3.754261
 O    0.337405    1.823739   -3.959804
 C    2.176762    2.397478   -2.570906
 C    3.260843    3.207039   -2.238187
 C    3.970314    2.961409   -1.073695
 C    3.630603    1.923469   -0.203485
 C    4.443723    1.842915    1.061068
 O    5.478208    2.495824    1.180588
 N    3.964693    1.063082    2.057606
 C    4.741455    0.801070    3.244168
 C    4.824618    2.038021    4.159612
 C    5.755891    1.899944    5.338799
 O    5.538226    2.323077    6.445941
 O    6.911263    1.292746    5.001818
 C    4.099728   -0.395142    3.931041
 O    4.669991   -0.680499    5.106993
 O    3.176004   -1.032474    3.477890
 C    2.576633    1.064168   -0.582977
 O    2.254280    0.005225    0.222399
 C    1.547880   -1.094655   -0.349222
 C    1.532331   -2.215993    0.669182
 C    1.849983    1.312300   -1.744982
 H   -4.090332   -0.476325   -0.687651
 H   -1.841546   -3.494134   -0.806349
 H   -2.630651   -3.537006    0.767906
 H   -2.518874   -5.817707   -0.284415
 H   -3.471756   -5.232732   -1.657459
 H   -4.202269   -5.323739   -0.048324
 H   -3.475150    0.571386    3.080177
 H   -2.796938    0.533412    4.711337
 H   -2.621579    1.985314    3.710929
 H   -1.335959   -0.745717    3.101857
 H   -0.487620    0.606367    3.818681
 H    0.009805    0.475270    1.426935
 H   -0.801228    1.982501    1.814674
 H   -1.589406    1.025210   -0.300189
 H   -2.914667    1.180357    0.841641
 H   -1.389690   -1.429187    0.370787
 H   -2.833961   -1.227814    1.361583
 H   -4.021774   -2.831911   -1.849378
 H   -5.150943   -3.603579    1.524817
 H   -6.973456   -1.937914    0.041266
 H   -4.342433   -0.725469   -2.939594
 H   -2.709036   -1.439732   -4.904041
 H   -3.675287    0.038066   -5.090209
 H   -1.036125    0.200800   -3.828000
 H   -0.152847    3.926431   -6.400161
 H    2.022924    4.474428   -4.837530
 H    3.546370    4.034041   -2.881613
 H    4.812969    3.586471   -0.794420
 H    3.187722    0.440648    1.864883
 H    5.770829    0.526570    2.971737
 H    3.838054    2.324685    4.530835
 H    5.204854    2.854352    3.537013
 H    7.435864    1.244214    5.818085
 H    4.204461   -1.454345    5.467067
 H    0.526241   -0.789194   -0.605662
 H    2.051711   -1.404148   -1.274581
 H    0.970435   -3.071478    0.277686
 H    2.550147   -2.547347    0.894425
 H    1.059693   -1.892890    1.603768
 H    1.015705    0.666916   -2.000456
