25 
6bsx_ligand_dft.xyz
 C  -16.783412   -6.493448  -48.951630
 C  -18.787001   -7.860508  -52.505894
 C  -18.088586   -7.368744  -51.262389
 C  -18.157334   -6.023348  -50.923255
 C  -17.499275   -5.604364  -49.769504
 N  -17.359147   -4.376688  -49.154825
 C  -16.608039   -4.584618  -48.031741
 C  -16.240190   -3.441661  -47.138128
 O  -17.074053   -2.347710  -47.472843
 N  -16.236310   -5.824353  -47.865442
 C  -16.719270   -7.844353  -49.300823
 C  -17.365703   -8.283439  -50.447782
 C  -17.302333   -9.741020  -50.833979
 H  -18.081298   -8.314137  -53.212456
 H  -19.537649   -8.625106  -52.271556
 H  -19.295943   -7.041911  -53.022974
 H  -18.709534   -5.324865  -51.546276
 H  -17.770692   -3.491789  -49.404987
 H  -16.365909   -3.757078  -46.094271
 H  -15.178347   -3.197318  -47.288975
 H  -16.766065   -1.573437  -46.990885
 H  -16.166635   -8.537507  -48.673207
 H  -16.843731   -9.879668  -51.820814
 H  -16.713374  -10.311817  -50.110655
 H  -18.301170  -10.192115  -50.880708
