25 
6bsx_ligand_xtb.xyz
 C  -16.777311   -6.502728  -48.966020
 C  -18.802082   -7.865978  -52.478448
 C  -18.097300   -7.373800  -51.249528
 C  -18.184311   -6.035882  -50.905575
 C  -17.524080   -5.610197  -49.766823
 N  -17.400642   -4.391463  -49.150575
 C  -16.619200   -4.588986  -48.051476
 C  -16.271725   -3.464728  -47.133458
 O  -16.873429   -2.279717  -47.611457
 N  -16.229692   -5.821099  -47.905308
 C  -16.696654   -7.843190  -49.320372
 C  -17.354485   -8.274045  -50.457204
 C  -17.276440   -9.719356  -50.852462
 H  -18.092332   -8.298554  -53.182912
 H  -19.527413   -8.638138  -52.223863
 H  -19.325372   -7.051550  -52.973090
 H  -18.752812   -5.344713  -51.511202
 H  -17.792675   -3.506234  -49.423134
 H  -16.625776   -3.710614  -46.121930
 H  -15.177372   -3.366448  -47.091719
 H  -16.647710   -1.556505  -47.018617
 H  -16.127772   -8.528807  -48.712358
 H  -16.834475   -9.826286  -51.842699
 H  -16.670146  -10.275790  -50.142752
 H  -18.269793  -10.166189  -50.883019
