66 
6bto_ligand_xtb.xyz
 C    2.204546   -0.706967    0.418849
 C    3.760904   -1.528029   -1.323036
 C    0.970113   -1.212896   -0.313326
 C    0.677721    4.384929    3.327493
 C    1.426517    3.323370    2.530993
 C    0.514191    2.646516    1.510270
 C    1.244903    1.668604    0.591280
 C    1.799140    0.457337    1.341489
 C    3.278907   -0.291849   -0.597086
 O    4.630318   -2.283645   -0.915537
 N    3.156777   -1.743964   -2.504362
 O    3.445818   -2.947823   -3.159563
 O    0.710332   -0.844807   -1.460970
 N    0.152260   -2.030983    0.354447
 C    0.419797   -2.768038    1.585497
 C    1.062605   -4.101072    1.168828
 C   -0.113985   -4.836496    0.490234
 C   -1.275362   -3.845362    0.637052
 C   -0.982683   -3.205523    1.993412
 C   -1.013098   -2.652670   -0.284439
 C   -2.215596   -1.688902   -0.335211
 O   -3.232075   -1.864591    0.304791
 N   -2.007006   -0.645562   -1.151458
 C   -3.010057    0.361904   -1.391141
 C   -3.600223    0.197381   -2.789420
 O   -3.085244   -0.409343   -3.686304
 O   -4.758490    0.848441   -2.908431
 C   -2.438230    1.760626   -1.307373
 C   -1.352825    2.109628   -2.102808
 C   -0.833565    3.390848   -2.046221
 C   -1.397910    4.333254   -1.202543
 C   -2.481748    3.989660   -0.412192
 C   -3.000182    2.707206   -0.462981
 H    2.621600   -1.510626    1.032378
 H   -0.158700    3.939832    3.861908
 H    0.287732    5.153821    2.664116
 H    1.336295    4.857514    4.052428
 H    1.830914    2.579488    3.219616
 H    2.266591    3.787710    2.009446
 H    0.049230    3.416017    0.890371
 H   -0.289409    2.121332    2.032433
 H    0.542988    1.330810   -0.173046
 H    2.057177    2.195516    0.087818
 H    1.034852    0.100556    2.036711
 H    2.672698    0.750951    1.926224
 H    2.865874    0.421304   -1.307914
 H    4.121588    0.151906   -0.067201
 H    2.250045   -1.362745   -2.744977
 H    4.180021   -3.315547   -2.624274
 H    0.979409   -2.187150    2.313448
 H    1.902904   -3.946366    0.492694
 H    1.425588   -4.639022    2.043659
 H   -0.343886   -5.770239    1.001802
 H    0.091358   -5.065741   -0.554512
 H   -2.266968   -4.268180    0.505259
 H   -1.648928   -2.377268    2.220560
 H   -0.979362   -3.917209    2.814860
 H   -0.766068   -2.940834   -1.312818
 H   -1.126671   -0.589006   -1.658265
 H   -3.809206    0.222071   -0.655469
 H   -5.112012    0.757880   -3.808102
 H   -0.918114    1.381061   -2.771252
 H    0.010663    3.655018   -2.665275
 H   -0.994770    5.334532   -1.163451
 H   -2.924072    4.721061    0.247720
 H   -3.846029    2.440574    0.152771
