66 
6bto_ligand_aiqm1.xyz
 C    2.211751   -0.745536    0.463600
 C    3.826656   -1.593491   -1.230102
 C    1.004363   -1.250697   -0.315532
 C    0.705515    4.375138    3.328319
 C    1.439156    3.317694    2.512161
 C    0.517692    2.645689    1.501936
 C    1.202429    1.624147    0.596458
 C    1.770214    0.425414    1.361089
 C    3.342083   -0.365400   -0.499664
 O    4.483688   -2.486863   -0.706400
 N    3.496808   -1.650068   -2.542584
 O    3.759637   -2.867057   -3.169460
 O    0.806762   -0.886595   -1.480514
 N    0.126529   -2.033129    0.336097
 C    0.386440   -2.835823    1.570191
 C    1.077723   -4.131505    1.113133
 C   -0.062489   -4.833676    0.312936
 C   -1.271112   -3.888667    0.491675
 C   -1.024678   -3.317996    1.894711
 C   -1.019741   -2.650539   -0.371883
 C   -2.237789   -1.709059   -0.429307
 O   -3.340090   -2.037190   -0.019243
 N   -1.971548   -0.489127   -0.953135
 C   -3.025712    0.474347   -1.179195
 C   -3.844567    0.142971   -2.425645
 O   -3.486211   -0.537694   -3.348267
 O   -5.037925    0.761912   -2.371573
 C   -2.457423    1.877620   -1.302078
 C   -1.605639    2.218311   -2.355818
 C   -1.073974    3.501584   -2.434771
 C   -1.389953    4.458775   -1.472147
 C   -2.239294    4.124368   -0.418592
 C   -2.765589    2.834884   -0.334641
 H    2.581899   -1.544098    1.108312
 H   -0.124676    3.929029    3.879100
 H    0.293220    5.149126    2.677484
 H    1.366698    4.857666    4.048222
 H    1.871048    2.570604    3.185364
 H    2.278640    3.775828    1.981051
 H    0.068995    3.416268    0.871857
 H   -0.308422    2.160580    2.034647
 H    0.479921    1.283605   -0.147066
 H    2.008873    2.116982    0.043380
 H    1.013113    0.053161    2.061921
 H    2.624369    0.739759    1.968754
 H    2.993584    0.381020   -1.207774
 H    4.181720    0.037936    0.067055
 H    2.600060   -1.271408   -2.821019
 H    4.211707   -3.360499   -2.459854
 H    0.907598   -2.255032    2.325833
 H    1.973289   -3.937538    0.521667
 H    1.369685   -4.720250    1.981443
 H   -0.280265   -5.817316    0.726972
 H    0.189736   -4.965652   -0.739067
 H   -2.238116   -4.337474    0.309753
 H   -1.706905   -2.509614    2.155428
 H   -1.029261   -4.084585    2.667245
 H   -0.725490   -2.888191   -1.394217
 H   -1.062404   -0.342243   -1.372906
 H   -3.712189    0.437177   -0.333320
 H   -5.500991    0.545288   -3.191056
 H   -1.352859    1.480317   -3.109601
 H   -0.408342    3.754949   -3.248929
 H   -0.970084    5.452975   -1.541966
 H   -2.479062    4.855680    0.343486
 H   -3.418903    2.563408    0.485948
