72 
6byk_ligand_ani-2x.xyz
 N    1.001581    1.724390    1.894169
 C    2.115269    1.038658    1.177696
 C    1.654897   -0.356935    0.704707
 O    0.481437   -0.693921    0.788779
 C    3.294029    1.001104    2.176244
 C    2.618936    1.060298    3.546621
 C    1.419064    1.982766    3.301617
 N    2.650074   -1.149994    0.193661
 C    2.453422   -2.353206   -0.635588
 C    2.026518   -1.876120   -2.034563
 O    2.867190   -1.629172   -2.882075
 C    1.589790   -3.432308    0.037457
 C    1.349536   -4.614739   -0.902596
 C    2.236096   -3.892830    1.345073
 N    0.684764   -1.668948   -2.242393
 C    0.263877   -0.616633   -3.163507
 C    0.208826    0.701684   -2.364210
 O    1.230410    1.131075   -1.846889
 C   -1.011985   -1.024656   -3.896608
 O   -2.150221   -1.117397   -3.048835
 N   -1.008408    1.310748   -2.207991
 C   -1.268016    2.045705   -0.978379
 C   -1.867469    1.172851    0.141990
 O   -1.704288    1.494249    1.319478
 C   -2.137958    3.286154   -1.221894
 C   -2.198228    4.243297   -0.017841
 C   -0.829540    4.807861    0.325306
 O    0.020734    4.180512    0.951434
 N   -0.572718    6.053310   -0.144431
 N   -2.578129    0.069808   -0.215930
 C   -2.930336   -0.957274    0.742514
 C   -2.107715   -2.205842    0.457968
 O   -1.850293   -2.927954    1.546859
 C   -4.418267   -1.312228    0.685907
 O   -1.758091   -2.570912   -0.651031
 H    0.700771    2.597399    1.430155
 H    0.173402    1.105169    1.862432
 H    2.366864    1.618450    0.284240
 H    3.928907    0.119302    2.055234
 H    3.920953    1.885078    2.019093
 H    2.279081    0.064406    3.850920
 H    3.279904    1.443222    4.328619
 H    0.590811    1.802571    3.992345
 H    1.714865    3.032603    3.391916
 H    3.532341   -0.686116    0.029496
 H    3.455394   -2.763351   -0.794005
 H    0.625850   -2.984243    0.286407
 H    0.756600   -5.384946   -0.396010
 H    2.296404   -5.073560   -1.215440
 H    0.801686   -4.311455   -1.801169
 H    3.224702   -4.333620    1.162969
 H    2.354969   -3.065139    2.051218
 H    1.613058   -4.657357    1.822401
 H    0.068224   -1.850339   -1.456322
 H    1.085589   -0.515456   -3.878416
 H   -0.833013   -1.985055   -4.397722
 H   -1.240750   -0.289002   -4.675584
 H   -2.048967   -1.898542   -2.476386
 H   -1.802579    0.881306   -2.665622
 H   -0.291520    2.361816   -0.605865
 H   -3.159127    2.972875   -1.476098
 H   -1.733366    3.808710   -2.095867
 H   -2.898090    5.056977   -0.235545
 H   -2.566415    3.702710    0.856135
 H    0.293102    6.495991    0.124267
 H   -1.283261    6.621440   -0.574887
 H   -2.633966   -0.194939   -1.193864
 H   -2.665924   -0.597224    1.741114
 H   -1.314484   -3.684734    1.252775
 H   -4.691966   -1.711298   -0.297864
 H   -5.017425   -0.419672    0.880132
 H   -4.657307   -2.066574    1.441579
