30 
6c5f_ligand_ani-2x.xyz
 O  -26.439202  -14.019732    5.349282
 C  -26.287307  -15.340660    5.105709
 O  -25.875320  -16.075153    5.964076
 C  -26.653398  -15.807426    3.725075
 C  -27.562962  -15.124235    2.916390
 C  -26.083802  -16.995590    3.266079
 C  -26.377808  -17.460319    1.989282
 C  -27.253255  -16.755148    1.169606
 C  -27.851812  -15.575311    1.629906
 C  -28.839830  -14.818808    0.806775
 C  -30.076146  -14.519201    1.368892
 C  -31.066906  -13.944059    0.580548
 C  -32.437411  -13.661436    1.159543
 O  -32.421228  -13.255522    2.450639
 O  -33.466707  -13.800419    0.565183
 N  -30.903982  -13.664572   -0.714728
 C  -29.702883  -13.883515   -1.231008
 C  -28.620773  -14.404597   -0.519981
 C  -27.306458  -14.443387   -1.251619
 O  -26.192410  -14.376141   -0.499118
 O  -27.233518  -14.494135   -2.451883
 H  -26.651447  -13.559269    4.525132
 H  -28.099666  -14.246293    3.277373
 H  -25.411165  -17.536153    3.925171
 H  -25.919922  -18.376122    1.628823
 H  -27.475886  -17.108368    0.165730
 H  -30.267282  -14.804861    2.401838
 H  -31.511080  -13.085509    2.732403
 H  -29.562693  -13.630515   -2.278185
 H  -26.431041  -14.332946    0.441167
