30 
6c5f_ligand_aiqm1.xyz
 O  -26.552841  -14.180967    5.531900
 C  -26.325764  -15.466526    5.172442
 O  -25.883867  -16.246850    5.966947
 C  -26.644597  -15.837470    3.752424
 C  -27.552281  -15.121125    2.972427
 C  -26.019735  -16.970226    3.226454
 C  -26.281795  -17.364811    1.919917
 C  -27.176118  -16.637354    1.135521
 C  -27.824384  -15.509106    1.656780
 C  -28.830906  -14.780105    0.842061
 C  -30.069996  -14.444853    1.397101
 C  -31.060330  -13.888830    0.589447
 C  -32.440546  -13.582723    1.133671
 O  -32.474300  -13.172966    2.428574
 O  -33.442003  -13.704979    0.500840
 N  -30.897512  -13.656157   -0.716703
 C  -29.707268  -13.940020   -1.240895
 C  -28.637499  -14.470778   -0.512364
 C  -27.354793  -14.682250   -1.269922
 O  -26.224749  -14.263017   -0.662521
 O  -27.319930  -15.146379   -2.373478
 H  -26.788277  -13.659613    4.758693
 H  -28.087620  -14.275865    3.392879
 H  -25.342049  -17.523705    3.860571
 H  -25.795995  -18.239439    1.509537
 H  -27.382394  -16.945310    0.118316
 H  -30.276597  -14.679916    2.434283
 H  -31.581079  -13.031708    2.755254
 H  -29.581394  -13.750263   -2.299748
 H  -26.426681  -13.926088    0.217693
