80 
6c5q_ligand_aiqm1.xyz
 C    0.203406    2.102073   -2.862984
 C    5.203466    2.870313   -0.767950
 C    7.374731    2.189146   -1.569023
 C    5.803097    0.532668   -0.814638
 C    4.279458   -1.341133   -0.393860
 C    3.735138   -0.983056    0.998980
 C   -0.066919   -0.185329    2.311521
 C   -3.409654   -1.665070    1.942157
 C    0.590325    0.934518    1.584525
 C    1.664603    1.576856    2.238046
 C    2.439978    2.530287    1.602515
 C    2.140223    2.796722    0.259920
 C    1.071118    2.169639   -0.409154
 C    0.273568    1.243215    0.268457
 C    2.235199    3.379076   -1.911921
 C    1.138602    2.568116   -1.791015
 C    2.819565    4.027618   -3.125735
 C    4.204774    3.971413   -0.454743
 C    6.450692    3.197666   -1.299362
 C    7.056183    0.858670   -1.337277
 C    4.886187    1.534724   -0.522079
 C   -2.144300   -1.442000    2.730908
 C   -3.637385   -2.874770    1.292285
 C   -4.797331   -3.095182    0.548172
 C   -5.775832   -2.102179    0.426027
 C   -5.537596   -0.887652    1.082799
 C   -4.381764   -0.670296    1.825411
 C   -2.405798   -1.149975    4.207025
 C   -7.062874   -2.293418   -0.378181
 C   -8.280058   -2.125349    0.546420
 C   -7.145539   -3.681673   -1.021716
 C   -7.131916   -1.244764   -1.500976
 C    4.516217   -2.850748   -0.413689
 C    3.274590   -0.956458   -1.482945
 N    2.826812    3.557075   -0.656432
 N   -1.384545   -0.357569    2.102951
 O    5.579940   -0.798321   -0.619381
 O    4.319272   -0.352459    1.838660
 O    2.521734   -1.521477    1.159003
 O    0.588723   -0.927413    3.047485
 H    0.452571    2.530830   -3.833204
 H    0.237613    1.012442   -2.956482
 H   -0.829136    2.371858   -2.626669
 H    8.348057    2.442050   -1.970067
 H    1.909294    1.263789    3.241694
 H    3.290318    2.977546    2.104038
 H   -0.518948    0.720427   -0.256234
 H    2.836687    5.116358   -3.026464
 H    2.227855    3.778034   -4.004597
 H    3.844292    3.689875   -3.299189
 H    4.307546    4.292363    0.583695
 H    4.399647    4.844440   -1.077863
 H    6.705894    4.231873   -1.494541
 H    7.760608    0.063352   -1.540170
 H    3.936361    1.273402   -0.092644
 H   -1.516554   -2.332993    2.664919
 H   -2.894889   -3.661063    1.364740
 H   -4.924923   -4.053151    0.064287
 H   -6.269393   -0.090174    1.017809
 H   -4.243004    0.285643    2.321734
 H   -1.457031   -1.008326    4.723251
 H   -2.937986   -1.985756    4.662302
 H   -3.010977   -0.248115    4.328901
 H   -8.293692   -1.145780    1.028457
 H   -9.203792   -2.228028   -0.030160
 H   -8.277164   -2.887602    1.328156
 H   -8.080081   -3.761552   -1.580470
 H   -7.136533   -4.475723   -0.271745
 H   -6.323467   -3.853180   -1.720416
 H   -7.094374   -0.225842   -1.110213
 H   -6.300629   -1.371600   -2.197814
 H   -8.066592   -1.355544   -2.057956
 H    5.273715   -3.118253    0.322358
 H    3.588156   -3.371875   -0.188106
 H    4.864947   -3.143055   -1.404075
 H    2.352041   -1.510933   -1.318620
 H    3.683601   -1.222519   -2.456997
 H    3.029051    0.103019   -1.485239
 H   -1.870941    0.303384    1.522479
 H    2.165865   -1.295026    2.040707
