74 
6c5t_ligand_dft.xyz
 C   -5.173627   -2.147615   -0.256447
 C   -2.762614   -2.047320   -0.771098
 C    0.612204   -0.882365   -1.987007
 C   -1.427697    0.047958   -0.252593
 C    1.392561    2.323535   -0.482091
 C   -0.594256    2.908776    1.059779
 C    2.993630    1.159228   -2.039155
 C    3.936208   -0.225230   -0.138129
 C   -7.471627    0.657838    0.956535
 C   -7.822195    0.184802    2.223812
 C   -7.323795   -1.027408    2.685257
 C   -6.468063   -1.782539    1.887042
 C   -6.107991   -1.333822    0.618082
 C   -6.619150   -0.113357    0.168123
 C   -7.988464    1.977119    0.471730
 C   -8.540054    2.128807   -0.920685
 C   -9.466181    2.189148    0.264934
 C   -5.795611   -2.517808   -1.607649
 C   -1.560713   -1.164563   -0.920362
 C   -0.531699   -1.625683   -1.765846
 C    0.723706    0.348994   -1.332444
 C   -0.275903    0.814642   -0.449831
 C    0.172541    2.071799    0.084968
 C    2.323564    3.476214   -0.298214
 C    4.132788    0.725069   -1.137214
 C    4.992627   -0.634863    0.669526
 C    6.271078   -0.101106    0.506570
 C    6.460821    0.856795   -0.494446
 C    5.408025    1.263065   -1.303862
 C    7.453777   -0.488618    1.406788
 C    7.147846   -1.683647    2.322872
 C    7.859615    0.720462    2.264635
 C    8.615910   -0.850327    0.481749
 N   -3.920384   -1.418771   -0.421430
 N    1.725664    1.291077   -1.356285
 O   -2.711976   -3.257717   -0.956460
 O    8.458216   -2.057574   -0.092360
 O    9.571835   -0.149193    0.245508
 H   -4.918128   -3.076537    0.262025
 H    1.393575   -1.256265   -2.641871
 H   -2.184805    0.386856    0.450554
 H   -1.552048    3.236084    0.636928
 H   -0.818600    2.346192    1.973992
 H   -0.042515    3.805991    1.354223
 H    3.241968    2.112432   -2.518108
 H    2.855498    0.437090   -2.850124
 H    2.947987   -0.650043    0.016656
 H   -8.494459    0.772867    2.843034
 H   -7.602809   -1.389588    3.670566
 H   -6.076196   -2.727926    2.253098
 H   -6.360194    0.251678   -0.824331
 H   -7.445264    2.838092    0.858406
 H   -8.330429    3.047501   -1.459511
 H   -8.583772    1.240447   -1.544370
 H  -10.120247    1.338646    0.434011
 H   -9.892832    3.148592    0.540353
 H   -6.021489   -1.622315   -2.196539
 H   -5.095578   -3.140280   -2.170002
 H   -6.726823   -3.073646   -1.458380
 H   -0.660798   -2.592704   -2.239694
 H    3.304149    3.145871    0.063731
 H    2.481922    4.021284   -1.236884
 H    1.917090    4.182380    0.428529
 H    4.800578   -1.381239    1.432325
 H    7.445498    1.292565   -0.643417
 H    5.582138    2.014010   -2.071328
 H    6.810464   -2.556602    1.759725
 H    8.047153   -1.965048    2.880036
 H    6.379463   -1.412344    3.053350
 H    7.015750    1.017313    2.895081
 H    8.707889    0.468062    2.908753
 H    8.150382    1.572275    1.646564
 H   -3.960568   -0.411885   -0.448604
 H    9.220916   -2.177971   -0.680267
