74 
6c5t_ligand_aiqm1.xyz
 C    4.588306    3.026063    0.392240
 C    2.287127    2.711279   -0.441463
 C   -0.849805    1.417069   -2.077767
 C    1.271611    0.384502   -0.487267
 C   -1.205598   -2.126271   -1.357857
 C    0.810503   -2.778697    0.115359
 C   -2.933063   -0.845935   -2.674325
 C   -4.020442   -0.320463   -0.434172
 C    7.032871    0.292685    1.450652
 C    7.261419    0.647434    2.785135
 C    6.640470    1.763758    3.336877
 C    5.780675    2.537192    2.560936
 C    5.532453    2.197422    1.231069
 C    6.161387    1.075506    0.690444
 C    7.723625   -0.908405    0.893644
 C    7.856562   -1.142394   -0.586029
 C    9.069276   -0.768902    0.216354
 C    5.281273    3.649223   -0.819645
 C    1.241842    1.725017   -0.852558
 C    0.178263    2.224969   -1.631533
 C   -0.804539    0.063935   -1.710879
 C    0.237268   -0.454006   -0.913274
 C   -0.038861   -1.848906   -0.694923
 C   -1.975248   -3.402560   -1.463339
 C   -4.123616   -0.799433   -1.739513
 C   -5.139519   -0.273777    0.400365
 C   -6.387013   -0.710945   -0.047156
 C   -6.485562   -1.190221   -1.358046
 C   -5.371698   -1.235954   -2.187770
 C   -7.632161   -0.709323    0.846782
 C   -7.416987    0.001141    2.189513
 C   -8.090921   -2.152610    1.119322
 C   -8.732896    0.023502    0.079330
 N    3.460750    2.187563   -0.009924
 N   -1.663752   -0.970054   -1.991967
 O    2.092643    3.918472   -0.498165
 O   -8.491282    1.345235   -0.029261
 O   -9.708060   -0.489861   -0.404151
 H    4.172923    3.829512    1.003074
 H   -1.660412    1.825248   -2.669309
 H    2.054491   -0.018445    0.144522
 H    1.804285   -2.888710   -0.327884
 H    0.950843   -2.387772    1.126315
 H    0.362718   -3.769283    0.193576
 H   -3.041864   -1.687194   -3.362821
 H   -2.897699    0.058128   -3.285044
 H   -3.061443    0.014150   -0.060430
 H    7.932495    0.043312    3.382395
 H    6.827594    2.031067    4.369321
 H    5.293674    3.404510    2.988490
 H    5.967092    0.808089   -0.343862
 H    7.613538   -1.800655    1.499269
 H    7.770113   -2.158719   -0.942018
 H    7.453524   -0.392820   -1.252412
 H    9.453020    0.234288    0.095360
 H    9.814132   -1.528145    0.410131
 H    5.692122    2.876393   -1.475155
 H    4.564332    4.243774   -1.384116
 H    6.099812    4.290508   -0.491490
 H    0.188321    3.279949   -1.863999
 H   -3.006957   -3.271816   -1.125008
 H   -2.005678   -3.765645   -2.495184
 H   -1.508195   -4.172354   -0.851437
 H   -5.024619    0.111034    1.403665
 H   -7.440014   -1.535579   -1.738363
 H   -5.478280   -1.619183   -3.196513
 H   -7.067997    1.024388    2.058788
 H   -8.358076    0.024591    2.741514
 H   -6.691056   -0.545694    2.791991
 H   -7.329504   -2.664798    1.709659
 H   -9.029087   -2.154541    1.676816
 H   -8.246036   -2.710257    0.196974
 H    3.611435    1.197990   -0.083008
 H   -9.216547    1.711328   -0.552447
