57 
6c7q_ligand_aiqm1.xyz
 C   14.408329   -5.028706    6.225683
 C   15.528999   -5.786881    6.365411
 C   16.765328   -5.447280    7.089293
 C   17.195888   -6.232994    8.183598
 C   16.795273   -8.113426    9.572175
 C   18.347691   -5.920034    8.892660
 C   18.810151   -4.594204   11.909494
 C   17.296082   -2.742903   11.942576
 C   16.365363   -3.516479   12.672265
 C   17.515320   -4.339240    6.699948
 C   15.221764   -6.991775    5.661142
 C   16.071172   -8.197202    5.459273
 N   14.018934   -6.940481    5.143719
 O   13.493556   -5.701431    5.502254
 C   14.023095   -3.679122    6.708934
 C   18.668939   -4.025268    7.410003
 N   19.584548   -2.996271    7.210541
 C   20.583345   -3.107947    8.132916
 N   21.655231   -2.319092    8.183621
 C   22.502067   -2.642550    9.161105
 C   23.769032   -1.853726    9.269431
 N   22.333008   -3.599412   10.086613
 C   21.223131   -4.345398   10.033195
 C   20.300780   -4.178289    9.001473
 C   19.083480   -4.793879    8.516895
 O   16.385997   -7.285596    8.497501
 N   21.095570   -5.295385   11.026109
 C   19.901704   -5.505184   11.716296
 C   18.514760   -3.261767   11.555079
 C   16.637347   -4.818655   13.043719
 C   17.879928   -5.344303   12.653664
 N   18.438923   -6.563170   12.875371
 N   19.662137   -6.662299   12.300250
 C   17.876212   -7.664279   13.623292
 H   16.003508   -8.845181    9.698090
 H   17.736725   -8.616909    9.342803
 H   16.913825   -7.543195   10.498279
 H   18.666057   -6.539160    9.714558
 H   17.042009   -1.723755   11.687173
 H   15.417475   -3.073725   12.950225
 H   17.193039   -3.736083    5.859604
 H   15.570097   -8.883977    4.778926
 H   17.042410   -7.919309    5.045278
 H   16.249715   -8.694701    6.411929
 H   13.717506   -3.045258    5.875573
 H   13.188645   -3.755915    7.407420
 H   14.867920   -3.215918    7.218144
 H   19.601568   -2.340856    6.449883
 H   23.773643   -1.042141    8.545862
 H   23.870374   -1.462326   10.281815
 H   24.621522   -2.511864    9.094038
 H   21.933763   -5.408738   11.578197
 H   19.226044   -2.654293   11.010472
 H   15.928026   -5.409529   13.606793
 H   18.620508   -8.453930   13.660409
 H   17.625415   -7.348789   14.636806
 H   16.971126   -8.038820   13.140220
