57 
6c7q_ligand_ani-2x.xyz
 C   14.644172   -4.744373    5.691335
 C   15.543372   -5.622750    6.227621
 C   16.737939   -5.282543    7.015824
 C   17.084726   -6.013096    8.185811
 C   16.406350   -7.563773    9.839233
 C   18.240897   -5.741850    8.893941
 C   18.697340   -4.823120   12.020169
 C   16.741984   -3.435228   11.964712
 C   16.054168   -4.364119   12.771726
 C   17.552224   -4.231219    6.623342
 C   15.090066   -6.900330    5.747695
 C   15.666800   -8.267901    5.942476
 N   14.020645   -6.765784    5.008050
 O   13.738513   -5.417518    4.977768
 C   14.467883   -3.262465    5.747053
 C   18.694932   -3.938428    7.352761
 N   19.646996   -2.968062    7.117139
 C   20.622313   -3.054796    8.070404
 N   21.725355   -2.314423    8.080239
 C   22.559854   -2.613003    9.075226
 C   23.849918   -1.844598    9.135405
 N   22.362979   -3.533560   10.031091
 C   21.209126   -4.206981   10.051142
 C   20.278446   -4.060620    9.001487
 C   19.049603   -4.666259    8.498592
 O   16.201542   -6.974571    8.574881
 N   21.091042   -5.061638   11.124954
 C   19.981024   -5.463697   11.854573
 C   18.056689   -3.645633   11.592134
 C   16.662788   -5.509765   13.236233
 C   18.000887   -5.715021   12.863840
 N   18.852401   -6.729218   13.163403
 N   20.060285   -6.567831   12.575999
 C   18.579919   -7.862537   14.008288
 H   15.559069   -8.232708   10.002465
 H   17.336584   -8.145936    9.860689
 H   16.431062   -6.805539   10.632584
 H   18.517976   -6.345985    9.749871
 H   16.227175   -2.537250   11.633952
 H   15.019461   -4.165354   13.037727
 H   17.310887   -3.654901    5.733642
 H   15.271021   -8.944222    5.180982
 H   16.757818   -8.243491    5.877172
 H   15.405626   -8.652997    6.931098
 H   13.407228   -3.003206    5.719140
 H   14.915602   -2.857370    6.658062
 H   14.952896   -2.775290    4.892187
 H   19.693400   -2.348364    6.323028
 H   23.900829   -1.145297    8.299317
 H   23.916624   -1.295622   10.079586
 H   24.698644   -2.533795    9.094490
 H   21.979067   -5.284057   11.562366
 H   18.574638   -2.927252   10.962911
 H   16.141677   -6.229832   13.861507
 H   19.463253   -8.502697   14.003839
 H   18.361754   -7.540820   15.032590
 H   17.718531   -8.420309   13.624246
