54 
6c9v_ligand_dft.xyz
 N    3.515525   -2.748005   11.648920
 N    5.162145   -2.426510    9.939545
 C    4.797916   -3.653161    9.526566
 C    3.845155   -4.499734   10.089974
 C    3.161824   -3.980534   11.224124
 C    4.694948   -5.556559    8.442846
 C    1.795010   -6.005671   11.650853
 C    2.215281   -6.875247   12.841747
 C    1.623033   -4.078283   13.132829
 C   -0.619368   -5.928373   14.938132
 C   -2.160809   -7.761278   15.289799
 C    6.353046   -3.807645    7.579475
 C    4.460605   -2.063388   11.010755
 C    7.625104   -3.422255    8.370511
 C    2.035124   -4.983461   14.301214
 C    0.372255   -6.804709   14.472144
 C   -1.861868   -6.406634   15.346895
 C   -1.182689   -8.640984   14.830295
 C    8.731875   -3.880849    7.415868
 C    0.063423   -8.176284   14.437373
 C    8.087711   -5.105822    6.766598
 C    8.262213   -6.381831    7.579654
 N    2.179590   -4.619783   11.897225
 N    1.660449   -6.375258   14.097875
 N    3.804794   -5.695918    9.391562
 N    5.326474   -4.340025    8.471373
 O    7.731837   -2.053530    8.629235
 O    8.955941   -2.903281    6.434567
 O    6.700550   -4.775136    6.642617
 O    7.512364   -7.397347    6.952338
 H    4.962392   -6.297175    7.701862
 H    0.702739   -6.042711   11.544056
 H    2.250676   -6.361487   10.727563
 H    1.899827   -7.904401   12.668851
 H    3.309974   -6.872193   12.918907
 H    1.991258   -3.062806   13.268261
 H    0.531144   -4.053798   13.030960
 H   -0.440062   -4.860155   14.979640
 H   -3.133191   -8.128241   15.601940
 H    5.940572   -2.926022    7.075813
 H    4.688784   -1.083256   11.422721
 H    7.661104   -4.008526    9.299790
 H    3.128530   -4.945536   14.390627
 H    1.624331   -4.622317   15.246620
 H   -2.605798   -5.698841   15.701701
 H   -1.384191   -9.707858   14.792990
 H    9.658919   -4.132207    7.952172
 H    0.820712   -8.891045   14.131791
 H    8.465274   -5.261622    5.753497
 H    7.920616   -6.218088    8.614718
 H    9.335268   -6.627244    7.615709
 H    6.930137   -1.816064    9.139464
 H    8.810989   -2.050008    6.872130
 H    7.616540   -8.206906    7.464308
