39 
6cb5_ligand_ani-2x.xyz
 C  104.731986   15.307551    6.831499
 C  106.853797   13.801203    4.406470
 C  109.624592   13.266196    1.950824
 C  110.979784   13.444674    1.865121
 C  111.699711   13.989932    2.958373
 C  109.641322   14.168144    4.226605
 C  106.335671   11.927271    7.680353
 C  105.384513   13.049508    7.410009
 C  104.040264   12.757879    7.631998
 C  103.039652   13.714005    7.479665
 C  101.636200   13.364799    7.732149
 C  101.044551   12.121355    7.625774
 C  100.569418   14.205289    8.143229
 C  103.405322   15.005035    7.085811
 C  105.719521   14.336679    6.960867
 C  107.583921   14.342233    5.492900
 C  107.518986   13.453138    3.258248
 C  108.920048   13.622977    3.132884
 C  111.045798   14.342502    4.108821
 C  108.939581   14.525459    5.403529
 N   99.744432   12.283958    7.952071
 N   99.430192   13.543933    8.276470
 O  107.625839   12.292899    7.733337
 O  105.988141   10.781554    7.866193
 O  107.001241   14.733545    6.676201
 H  105.032828   16.299678    6.510040
 H  105.779191   13.661600    4.482114
 H  109.065481   12.848591    1.115991
 H  111.513523   13.170017    0.958916
 H  112.774958   14.125284    2.873949
 H  103.802563   11.746650    7.948177
 H  101.441756   11.162955    7.321086
 H  100.597795   15.263651    8.367511
 H  102.642954   15.768745    6.959974
 H  106.967869   13.036406    2.418253
 H  111.591047   14.761788    4.951619
 H  109.471097   14.952161    6.249115
 H   99.024006   11.581443    7.975836
 H  108.115450   11.472318    7.914018
