39 
6cb5_ligand_aiqm1.xyz
 C  104.627064   15.410136    6.865395
 C  106.816407   13.982191    4.361784
 C  109.636740   13.197402    2.045916
 C  111.006198   13.264649    2.017040
 C  111.717561   13.766677    3.134503
 C  109.628654   14.130652    4.309148
 C  106.402002   12.051898    7.283650
 C  105.387518   13.138204    7.205203
 C  104.068427   12.767565    7.483654
 C  103.025720   13.692434    7.478149
 C  101.648989   13.293743    7.777392
 C  101.084259   12.033793    7.692784
 C  100.582987   14.117380    8.216448
 C  103.329185   15.026730    7.174046
 C  105.662010   14.476813    6.879772
 C  107.545444   14.477667    5.473283
 C  107.500010   13.567769    3.246730
 C  108.915790   13.626716    3.188465
 C  111.044992   14.189527    4.252303
 C  108.912217   14.551007    5.458534
 N   99.791949   12.170110    8.061058
 N   99.459218   13.428607    8.388898
 O  107.644216   12.494925    7.537946
 O  106.141307   10.878797    7.170101
 O  106.917456   14.944180    6.607542
 H  104.870704   16.433821    6.614067
 H  105.735357   13.941207    4.397223
 H  109.088222   12.813658    1.192717
 H  111.548692   12.935000    1.141151
 H  112.798290   13.815756    3.101166
 H  103.884471   11.728037    7.717691
 H  101.493721   11.083927    7.398575
 H  100.594974   15.174457    8.427786
 H  102.540051   15.766957    7.153748
 H  106.956777   13.186530    2.389668
 H  111.588547   14.574234    5.106947
 H  109.427266   14.932330    6.331003
 H   99.091825   11.454513    8.109540
 H  108.209785   11.713003    7.544973
