27 
6ccl_ligand_xtb.xyz
 C   24.758049  -10.896211   32.060686
 C   23.441854  -10.773910   32.482039
 C   22.921327  -11.653084   33.415913
 C   28.414037  -10.646974   30.382554
 C   27.842439   -9.708957   31.224193
 C   29.796887  -10.684983   30.377782
 C   30.524894   -9.809353   31.188735
 N   29.996189   -8.910322   31.992717
 C   28.673655   -8.858877   32.012902
 N   27.884930   -8.024190   32.754659
 C   26.667089   -8.340674   32.443984
 N   26.558792   -9.338787   31.521245
 C   25.336138   -9.936467   31.046423
 C   25.550377  -11.906310   32.592436
 C   25.031835  -12.780425   33.530250
 C   23.715650  -12.656549   33.942543
 H   22.819230   -9.989186   32.076045
 H   21.895048  -11.550019   33.735473
 H   27.825027  -11.313423   29.766435
 H   30.319221  -11.389620   29.749606
 H   31.606171   -9.841501   31.183574
 H   25.799559   -7.865350   32.860887
 H   24.614839   -9.142465   30.829208
 H   25.558540  -10.464844   30.113485
 H   26.578948  -12.005347   32.276055
 H   25.656945  -13.559931   33.939388
 H   23.311132  -13.339642   34.674184
