27 
6ccl_ligand_aiqm1.xyz
 C   24.902179  -11.066236   31.789601
 C   25.056531  -10.718488   33.134089
 C   24.768114  -11.642057   34.135329
 C   28.246760  -10.794676   31.412908
 C   27.591910   -9.569052   31.350044
 C   29.578372  -10.723849   31.796431
 C   30.169791   -9.481637   32.093521
 N   29.543736   -8.308681   32.046724
 C   28.260159   -8.376648   31.677838
 N   27.398261   -7.301297   31.571291
 C   26.266425   -7.836020   31.194140
 N   26.308014   -9.194603   31.028854
 C   25.201937  -10.071021   30.690574
 C   24.462588  -12.350760   31.465095
 C   24.170681  -13.272298   32.467710
 C   24.322686  -12.919506   33.805710
 H   25.414022   -9.729467   33.391129
 H   24.895441  -11.366156   35.173705
 H   27.755538  -11.735133   31.190195
 H   30.172696  -11.624417   31.875402
 H   31.211346   -9.452674   32.389455
 H   25.353792   -7.284990   31.016822
 H   24.338047   -9.432226   30.502011
 H   25.432826  -10.601020   29.763606
 H   24.347057  -12.635340   30.425453
 H   23.829624  -14.263713   32.200737
 H   24.100265  -13.635437   34.585027
