26 
6cea_ligand_aiqm1.xyz
 C    3.233288    2.686191    8.331971
 O    4.931270    3.921988    7.175552
 C    2.349060    1.556208    7.766646
 C    0.874165    1.877190    7.740594
 C   -0.067848    0.906094    8.180927
 C   -1.402982    1.200777    8.147940
 C   -1.825889    2.467407    7.680231
 C   -3.189960    2.850317    7.618453
 C   -3.541980    4.092650    7.156636
 C   -2.538838    5.002070    6.737602
 C   -1.212885    4.656691    6.787621
 C   -0.825593    3.376944    7.261659
 C    3.759515    3.670348    7.293764
 O    2.840569    4.256936    6.519989
 N    0.503593    3.064310    7.301371
 H    4.109990    2.260897    8.815809
 H    2.677299    3.252782    9.085991
 H    2.487214    0.652416    8.363608
 H    2.672864    1.309687    6.750877
 H    0.284477   -0.051654    8.538854
 H   -2.139881    0.478150    8.477959
 H   -3.946997    2.145286    7.941164
 H   -4.583311    4.381416    7.110030
 H   -2.824947    5.979281    6.373672
 H   -0.440734    5.345031    6.467667
 H    1.937739    3.930487    6.760112
