29 
6cec_ligand_dft.xyz
 O   -2.563346   -1.867118    0.593318
 O   -4.616523   -1.027518    0.529604
 C   -1.996319    1.088832   -0.299091
 C   -3.471816   -0.991260    0.152663
 C    1.430672   -2.342858   -0.186138
 C    2.752933   -2.705591   -0.085712
 C    3.752532   -1.721548    0.072765
 C   -2.974734    0.042838   -0.857735
 C   -0.562009    0.645747   -0.175358
 N   -0.243964   -0.615828   -0.232977
 C    1.074704   -0.979759   -0.129868
 C    2.072238    0.006656    0.032721
 C    3.423005   -0.387543    0.132001
 N    1.741705    1.333901    0.101351
 C    0.482984    1.631240    0.005652
 O    0.063475    2.899292    0.070801
 C    1.065973    3.895050    0.253447
 H   -1.684616   -1.641743    0.210103
 H   -2.338791    1.452232    0.678999
 H   -2.011922    1.969973   -0.949012
 H    0.644106   -3.081049   -0.308437
 H    3.032603   -3.753323   -0.127765
 H    4.792148   -2.024352    0.150203
 H   -2.512474   -0.472077   -1.708508
 H   -3.865730    0.558678   -1.218647
 H    4.175381    0.384137    0.256264
 H    1.606223    3.730317    1.189467
 H    1.779828    3.879863   -0.574480
 H    0.529231    4.842770    0.281324
