29 
6cec_ligand_xtb.xyz
 O    3.197563    4.405146    8.625685
 O    4.034590    3.711637    6.698603
 C    1.477886    2.003852    8.577076
 C    3.389882    3.466357    7.676659
 C    0.884477    5.354532    5.221958
 C    0.068398    6.120984    4.433443
 C   -1.327353    5.996989    4.512536
 C    2.905630    2.062385    8.028230
 C    0.561228    2.828194    7.723851
 N    1.102720    3.671919    6.900275
 C    0.310286    4.437124    6.117040
 C   -1.100470    4.310110    6.200911
 C   -1.910925    5.109667    5.378144
 N   -1.662161    3.429645    7.065787
 C   -0.865084    2.710743    7.806873
 O   -1.363456    1.828592    8.683831
 C   -2.776604    1.734356    8.727509
 H    2.644413    4.082667    9.346943
 H    1.420098    2.363916    9.610936
 H    1.121166    0.971749    8.594143
 H    1.960194    5.422293    5.186804
 H    0.495870    6.830181    3.740574
 H   -1.946949    6.613889    3.878135
 H    2.976095    1.471988    7.114837
 H    3.603894    1.645183    8.758849
 H   -2.982206    5.003857    5.449865
 H   -3.215084    2.695816    9.002252
 H   -3.169643    1.437116    7.753257
 H   -3.003856    0.981115    9.478293
