29 
6cec_ligand_ani-2x.xyz
 O    2.456711    4.153690    9.370182
 O    4.562155    3.470856    9.378425
 C    1.595871    1.767256    8.031778
 C    3.437129    3.314719    8.982545
 C    0.695483    5.138005    4.671403
 C   -0.176220    5.973548    4.018399
 C   -1.535965    6.023591    4.398797
 C    3.062470    2.191096    8.026588
 C    0.674031    2.757769    7.345579
 N    1.118487    3.494239    6.371089
 C    0.230966    4.323349    5.729132
 C   -1.124299    4.372072    6.110499
 C   -2.001429    5.236996    5.426491
 N   -1.602810    3.589746    7.138899
 C   -0.734163    2.823567    7.712310
 O   -1.084309    2.016520    8.726452
 C   -2.448441    2.059868    9.130729
 H    1.612699    3.919023    8.948974
 H    1.237430    1.570320    9.045176
 H    1.503455    0.818159    7.492842
 H    1.747619    5.071268    4.408980
 H    0.176573    6.601861    3.204011
 H   -2.215845    6.689662    3.873432
 H    3.334749    2.525861    7.016752
 H    3.710939    1.349012    8.279475
 H   -3.042744    5.258807    5.736646
 H   -2.722611    3.067612    9.456075
 H   -3.106564    1.771415    8.305918
 H   -2.530767    1.352112    9.955724
