29 
6ced_ligand_ani-2x.xyz
 C    0.434359    2.610094    7.625730
 C    1.395280    1.772565    8.438744
 C    2.865089    1.906051    8.013694
 C    3.571486    3.129375    8.591976
 C    0.017158    4.220457    6.021782
 C    0.516258    5.176822    5.118237
 C   -0.350789    5.881206    4.309261
 C   -1.736396    5.661105    4.375196
 O    4.444818    3.034474    9.419503
 N    0.893774    3.514856    6.821396
 N   -0.911500    2.365289    7.799242
 C   -1.379728    1.364536    8.765450
 O    3.171726    4.316941    8.130360
 O   -3.080847    2.779532    7.187166
 C   -1.896996    3.025642    7.039240
 C   -1.364997    4.006933    6.086873
 C   -2.234687    4.729215    5.262009
 H    1.095454    0.725087    8.344329
 H    1.294308    2.038486    9.497051
 H    2.928497    1.923291    6.919281
 H    3.427440    1.042306    8.373654
 H    1.589730    5.342252    5.072151
 H    0.045535    6.615824    3.613217
 H   -2.407580    6.223608    3.732244
 H   -0.912725    1.518150    9.740913
 H   -2.454158    1.494915    8.853132
 H   -1.175150    0.345698    8.419275
 H    2.419146    4.194237    7.498959
 H   -3.299506    4.530354    5.348434
