29 
6cee_ligand_xtb.xyz
 C   -0.923280    5.626128    4.776871
 C    3.108204    3.490484    7.611047
 C   -0.293999    4.007143    6.431482
 N    0.697402    3.343268    7.084427
 C    0.406831    2.482304    7.987934
 C    2.858147    2.030098    7.970633
 O   -1.230785    1.340142    9.269510
 C   -0.966112    2.149423    8.394737
 C    1.530017    1.779084    8.686251
 O    2.888204    4.380248    8.598786
 O    3.583996    3.840661    6.570611
 C   -1.652595    3.757981    6.731293
 N   -1.950637    2.832373    7.706558
 C   -3.326673    2.543084    8.050688
 C   -2.632531    4.463693    6.027272
 C   -2.264292    5.381239    5.066828
 C    0.058033    4.943322    5.454245
 H   -0.661102    6.350319    4.021574
 H    3.688566    1.694811    8.597626
 H    2.889443    1.469316    7.036766
 H    1.307671    0.709627    8.716620
 H    1.550700    2.105588    9.732455
 H    2.495731    3.967870    9.377846
 H   -3.306463    1.788222    8.836359
 H   -3.825494    3.439090    8.421551
 H   -3.863356    2.152407    7.185615
 H   -3.678480    4.298150    6.228502
 H   -3.032784    5.918914    4.531739
 H    1.108538    5.096914    5.266675
