41 
6cgp_ligand_aiqm1.xyz
 C  -23.168421   19.075215   23.773127
 C  -23.703380   17.725454   23.513976
 C  -17.710910   22.959423   27.547041
 C  -17.414908   23.519811   26.335942
 C  -18.436627   23.615600   25.357979
 C  -19.630140   22.009830   21.228184
 C  -19.286434   23.494870   21.168008
 C  -20.020181   24.327570   22.223526
 C  -19.663239   23.927880   23.621146
 C  -20.485285   23.345693   24.560173
 C  -22.249283   21.673948   24.283380
 C  -23.626248   21.402903   24.228020
 C  -24.074088   20.118256   23.983375
 C  -21.797319   19.340862   23.834833
 C  -21.336627   20.622536   24.092469
 C  -19.999936   22.574160   26.889983
 C  -19.022851   22.474977   27.835268
 N  -21.819354   22.957160   24.571516
 N  -22.790929   16.779260   23.093316
 N  -19.690812   23.142125   25.684424
 N  -18.398638   24.096265   24.119813
 O  -24.871001   17.400475   23.688524
 O  -23.391439   15.583420   22.695310
 H  -16.944630   22.876906   28.302509
 H  -16.432584   23.891192   26.089808
 H  -19.234964   21.551052   22.136943
 H  -20.712779   21.861055   21.226886
 H  -19.210283   21.470766   20.377203
 H  -19.543288   23.894781   20.184490
 H  -18.212267   23.635766   21.300011
 H  -21.101697   24.233434   22.081666
 H  -19.762868   25.379979   22.084870
 H  -24.334290   22.208392   24.382955
 H  -25.132290   19.896982   23.951249
 H  -21.085403   18.533587   23.715212
 H  -20.277013   20.832820   24.137313
 H  -21.019820   22.241874   27.006935
 H  -19.249544   22.029363   28.792977
 H  -22.524590   23.671020   24.621098
 H  -22.127007   17.072617   22.391667
 H  -24.326831   15.760518   22.916076
