42 
6chm_ligand_xtb.xyz
 C   11.955068  162.827099   35.406184
 C   12.991272  161.882082   35.428384
 C   12.784698  160.584591   35.003728
 O    7.689726  164.545888   32.284381
 C   11.358928  164.256172   31.810467
 C    9.743671  165.805227   30.693661
 C   10.094258  165.931638   33.170320
 C   10.471546  161.181123   34.506627
 C   10.692325  162.479797   34.952399
 C    8.804554  164.077846   32.155776
 C   10.026879  164.989838   31.962534
 N    9.023732  162.746176   32.111891
 C    7.968262  161.780185   32.301775
 C    8.002117  161.139083   33.700601
 C    9.326781  160.509230   33.975437
 O   12.095467  164.131533   35.803970
 C   13.343658  164.566707   36.277267
 C   11.525071  160.236142   34.542349
 N   11.035553  159.055572   34.057300
 C    9.718991  159.227550   33.719993
 H   13.970320  162.158844   35.785155
 H   13.589697  159.865185   35.032989
 H   11.601353  163.679527   32.701698
 H   11.356583  163.599929   30.941448
 H   12.149870  164.990826   31.667890
 H    8.784679  166.307986   30.787322
 H   10.520312  166.551373   30.539672
 H    9.707469  165.154444   29.821745
 H   10.417255  165.396281   34.060440
 H   10.800219  166.737513   32.980351
 H    9.113163  166.361846   33.355447
 H    9.906606  163.217964   34.951676
 H    9.964146  162.391744   32.152408
 H    7.024312  162.310663   32.159981
 H    8.066783  161.000594   31.538875
 H    7.806508  161.912531   34.444397
 H    7.209145  160.391905   33.757056
 H   13.210657  165.617761   36.529661
 H   13.651451  164.017650   37.173507
 H   14.120967  164.476725   35.510548
 H   11.549317  158.194932   33.982905
 H    9.146634  158.411298   33.321785
