58 
6chn_ligand_aiqm1.xyz
 C    6.317964    1.112051    1.622616
 C    5.021908   -0.872651    1.978947
 C    4.460767   -1.977751    1.095918
 O    7.124622    0.809318    2.477929
 O    2.798829   -2.562874   -0.479341
 O   -4.948972    3.575710    0.495985
 C   -0.551119   -1.442282   -1.553669
 C    0.659353   -1.457724   -0.859162
 C   -1.546721   -0.337337   -1.288960
 C   -1.549926    0.725713   -2.407054
 C   -0.235309    1.352378   -2.565897
 C   -3.874034   -0.233579   -0.508519
 C   -5.563622    2.555894    0.693372
 C   -6.862471    2.426666    1.343429
 C   -7.484340    1.233051    1.520195
 C   -8.814067    1.066221    2.179350
 C   -5.686573    0.101195    0.465179
 N   -6.895313    0.065699    1.081968
 N   -5.063209    1.292230    0.290697
 N   -3.856683    1.080978   -0.348394
 N   -4.978534   -0.895720   -0.017065
 N   -2.889343   -0.914110   -1.167056
 N    0.802738    1.853805   -2.684707
 C   -0.829657   -2.433769   -2.493056
 C    0.109766   -3.436636   -2.734068
 C    1.315859   -3.452867   -2.052448
 C    1.599674   -2.456243   -1.111491
 C    3.259242   -1.469429    0.325167
 C    3.650807   -0.265239   -0.517613
 C    4.221754    0.835787    0.366795
 N    5.313312    0.311324    1.178788
 O    6.356633    2.295342    0.971422
 C    7.453579    3.127867    1.354876
 H    4.303191   -0.624350    2.771066
 H    5.946737   -1.179626    2.455921
 H    5.219664   -2.300253    0.378044
 H    4.178645   -2.836326    1.708320
 H    0.859621   -0.672316   -0.145094
 H   -1.272763    0.166530   -0.353268
 H   -1.832434    0.251427   -3.348643
 H   -2.282428    1.496904   -2.169627
 H   -7.329001    3.336197    1.688501
 H   -8.725188    0.424022    3.055866
 H   -9.200355    2.033656    2.490918
 H   -9.524438    0.609392    1.489946
 H   -7.347142   -0.825220    1.200384
 H   -2.893685   -1.901078   -0.956413
 H   -1.766467   -2.415229   -3.034885
 H   -0.099511   -4.207782   -3.464395
 H    2.055298   -4.222197   -2.228006
 H    2.475525   -1.181395    1.035356
 H    4.405411   -0.587751   -1.240267
 H    2.798965    0.112170   -1.081014
 H    3.434038    1.242563    1.013792
 H    4.607011    1.649337   -0.238796
 H    7.400498    3.360158    2.416338
 H    8.398219    2.630156    1.147381
 H    7.353578    4.028191    0.757746
