58 
6chn_ligand_xtb.xyz
 C    6.718174    0.883969    1.145557
 C    5.288935   -0.851847    2.031407
 C    4.705002   -1.864964    1.047166
 O    7.727083    0.346888    1.540300
 O    2.946593   -2.293285   -0.479583
 O   -5.235398    3.431220    0.913425
 C   -0.569195   -1.390089   -1.130262
 C    0.677865   -1.394015   -0.518663
 C   -1.608328   -0.410099   -0.645491
 C   -1.481053    0.904616   -1.454532
 C   -0.163937    1.452891   -1.306383
 C   -4.020232   -0.290570   -0.323982
 C   -5.881290    2.416501    0.816801
 C   -7.291964    2.260049    1.120420
 C   -7.969299    1.097297    0.986205
 C   -9.419626    0.929912    1.295295
 C   -6.006871    0.032801    0.238007
 N   -7.323528   -0.023965    0.540777
 N   -5.322648    1.207129    0.377783
 N   -4.036146    0.984392    0.011791
 N   -5.227177   -0.925054   -0.195753
 N   -2.943978   -0.943791   -0.808904
 N    0.895731    1.862080   -1.169360
 C   -0.811538   -2.217849   -2.215857
 C    0.187070   -3.067647   -2.665195
 C    1.426685   -3.072075   -2.063846
 C    1.692959   -2.218628   -0.989948
 C    3.397110   -1.329462    0.461484
 C    3.653725    0.030393   -0.197565
 C    4.264502    0.993494    0.820667
 N    5.467890    0.431360    1.390553
 O    6.719531    2.037540    0.432767
 C    8.004573    2.588253    0.197367
 H    4.611444   -0.726261    2.884041
 H    6.263541   -1.182293    2.393031
 H    5.408320   -2.036949    0.231673
 H    4.524724   -2.815957    1.548698
 H    0.841962   -0.733129    0.317608
 H   -1.426744   -0.164635    0.412903
 H   -1.671859    0.704710   -2.511557
 H   -2.222218    1.615466   -1.078433
 H   -7.793071    3.147073    1.468971
 H   -9.556471    0.175960    2.069816
 H   -9.845088    1.866519    1.639925
 H   -9.960209    0.604380    0.407124
 H   -7.803851   -0.903638    0.428216
 H   -3.035565   -1.947934   -0.816267
 H   -1.768404   -2.195631   -2.714705
 H   -0.002996   -3.721923   -3.502724
 H    2.216119   -3.719164   -2.410876
 H    2.663113   -1.222324    1.274065
 H    4.346848   -0.115383   -1.028187
 H    2.731560    0.457987   -0.593531
 H    3.549289    1.171649    1.632472
 H    4.501123    1.944146    0.347739
 H    8.492379    2.839762    1.141442
 H    8.633410    1.877209   -0.342538
 H    7.841326    3.483118   -0.398052
