50 
6cho_ligand_ani-2x.xyz
 C    2.161098    0.975379    1.696999
 C    3.145540    0.506728    0.828258
 C    3.087447    0.825129   -0.526502
 O    2.016268    1.879371   -2.361511
 O    1.042057   -2.095420    1.670208
 C   -0.891303   -0.037615   -3.548290
 C    0.194274    0.340884   -2.761917
 C   -1.692468   -1.291644   -3.202422
 C   -0.816069   -2.538222   -3.122049
 C   -2.066774   -1.056369   -0.722326
 C    0.028367   -1.524313    2.009782
 C   -0.355098   -1.083736    3.350317
 C   -1.509473   -0.421091    3.608650
 C   -1.912753    0.061487    4.970053
 C   -2.141709   -0.569587    1.311309
 N   -2.404807   -0.155451    2.586069
 N   -0.977520   -1.212741    1.071074
 N   -0.919687   -1.548181   -0.268264
 N   -2.863464   -0.450487    0.218204
 N   -2.529355   -1.142498   -2.008158
 C   -1.231178    0.732274   -4.661012
 C   -0.492913    1.868739   -4.984341
 C    0.588864    2.249174   -4.202818
 C    0.915707    1.484808   -3.085721
 C    2.029388    1.573602   -1.015731
 C    1.030443    2.031388   -0.158851
 C    1.102335    1.734883    1.192125
 O    2.141540    0.750454    3.039757
 C    3.013869   -0.245932    3.540535
 H    3.959703   -0.111539    1.194977
 H    3.853471    0.481750   -1.216928
 H    0.466680   -0.248962   -1.888669
 H   -2.411293   -1.438859   -4.017224
 H   -0.390188   -2.759172   -4.107197
 H   -1.429526   -3.384168   -2.799904
 H    0.001352   -2.416555   -2.408564
 H    0.338080   -1.292633    4.155844
 H   -2.856683   -0.395324    5.289173
 H   -1.143969   -0.197424    5.701969
 H   -2.044303    1.149761    4.983102
 H   -3.277781    0.318464    2.761737
 H   -3.347992   -0.564925   -2.140647
 H   -2.074213    0.435313   -5.281502
 H   -0.762331    2.459286   -5.856135
 H    1.187805    3.124608   -4.436877
 H    0.201507    2.608438   -0.563463
 H    0.341292    2.071131    1.891464
 H    2.807868   -0.309638    4.610663
 H    2.822747   -1.213562    3.059751
 H    4.065247    0.043195    3.403603
