50 
6cho_ligand_dft.xyz
 C   -2.208985    1.897861   -0.316427
 C   -1.837855    2.360955    0.944259
 C   -0.491567    2.587648    1.230209
 O    1.780435    2.696624    0.565851
 O   -1.580001   -1.280028    2.657636
 C    3.590525   -0.432480   -0.084888
 C    2.606585    0.450337    0.361065
 C    3.369015   -1.936855    0.005347
 C    3.312922   -2.446498    1.446102
 C    0.910066   -2.086800   -0.488189
 C   -1.859329   -1.388375    1.485936
 C   -3.187362   -1.271750    0.893249
 C   -3.422600   -1.364406   -0.437743
 C   -4.770832   -1.227364   -1.072717
 C   -1.113529   -1.765099   -0.832487
 N   -2.381064   -1.603016   -1.303834
 N   -0.884529   -1.668841    0.500232
 N    0.446922   -1.886485    0.734666
 N   -0.018473   -2.023474   -1.502985
 N    2.214617   -2.379968   -0.792183
 C    4.758362    0.084423   -0.647191
 C    4.933512    1.461480   -0.769085
 C    3.931741    2.339688   -0.370896
 C    2.765362    1.817510    0.179828
 C    0.477805    2.361109    0.266580
 C    0.111713    1.867718   -0.988193
 C   -1.223572    1.635829   -1.272551
 O   -3.496307    1.679530   -0.715284
 C   -4.519947    1.984309    0.202749
 H   -2.573896    2.546601    1.717121
 H   -0.189603    2.947841    2.207558
 H    1.700956    0.075153    0.824137
 H    4.225266   -2.421697   -0.477341
 H    4.260041   -2.215858    1.943245
 H    3.161929   -3.530037    1.452597
 H    2.497559   -1.984459    2.004466
 H   -4.002852   -1.096367    1.582579
 H   -5.046428   -2.144093   -1.606107
 H   -5.530464   -1.029180   -0.315001
 H   -4.765678   -0.396152   -1.785158
 H   -2.523971   -1.654872   -2.300823
 H    2.365546   -2.302030   -1.788836
 H    5.534916   -0.592240   -0.995577
 H    5.848537    1.854574   -1.202261
 H    4.033296    3.413190   -0.488739
 H    0.871176    1.670779   -1.737230
 H   -1.525862    1.268706   -2.247948
 H   -5.460822    1.779963   -0.311030
 H   -4.453452    1.356927    1.101129
 H   -4.493717    3.041286    0.496589
