61 
6cjp_ligand_aiqm1.xyz
 C   -0.258755   -1.798342   -0.477176
 C   -1.554957    1.156342   -2.507416
 C   -3.776936    2.139779   -1.821200
 C   -5.014049    0.656222   -0.123944
 C    2.898277   -0.981304   -2.889635
 C    3.492484    1.120637   -1.629487
 C    5.156428    1.130739    0.118789
 C    5.456373    2.964607    1.585374
 O   -0.921002   -0.589099    4.367450
 C   -0.218313   -0.640381    3.223889
 C   -0.763550   -1.104818    1.992047
 C   -2.205208   -1.400707    1.995000
 O   -2.804906   -1.410789    0.801018
 C   -4.243762   -1.617713    0.777538
 C   -4.543946   -2.236452   -0.569225
 O   -2.857935   -1.571965    3.018905
 C    0.101673   -1.187229    0.866082
 C   -0.269014   -0.756911   -1.571235
 C   -1.453496    0.102094   -1.676798
 C   -2.744314    1.989901   -2.668540
 C   -3.922167    1.586098   -0.453421
 O   -5.103060    2.038052    0.230539
 C   -4.960728   -0.297348    1.040884
 N    0.677325   -0.569519   -2.425481
 O    1.714622   -1.494899   -2.265663
 C    3.735584   -0.225884   -1.893888
 C    4.188697    1.806735   -0.628055
 O    5.849590    1.672736    1.149817
 C    5.423798   -0.214057   -0.147750
 C    4.721308   -0.878542   -1.146709
 C    1.411044   -0.729143    0.979059
 C    1.891341   -0.213217    2.186441
 O    3.155629    0.264629    2.317402
 C    1.091652   -0.183144    3.311971
 H    0.496472   -2.543405   -0.720001
 H   -1.227406   -2.292887   -0.457241
 H   -0.706484    1.386099   -3.146109
 H   -4.608991    2.763629   -2.129729
 H   -5.672536    0.379406   -0.944885
 H    3.431709   -1.859213   -3.255506
 H    2.610030   -0.347568   -3.727446
 H    2.726224    1.643471   -2.190932
 H    5.644687    3.717908    0.816474
 H    4.403501    2.985694    1.871439
 H    6.069974    3.178681    2.454231
 H   -1.802713   -0.968426    4.182723
 H   -4.488191   -2.307890    1.586406
 H   -4.187379   -1.599669   -1.378501
 H   -4.056218   -3.206968   -0.656099
 H   -5.619124   -2.375319   -0.678120
 H   -2.278541   -0.174029   -1.042240
 H   -2.796630    2.535952   -3.602690
 H   -3.036624    1.555276    0.177264
 H   -4.486491    0.203283    1.884271
 H   -5.987421   -0.521119    1.342664
 H    3.960956    2.845837   -0.434893
 H    6.167870   -0.725144    0.447928
 H    4.930870   -1.927760   -1.324375
 H    2.071559   -0.777122    0.123568
 H    3.621259    0.206497    1.477355
 H    1.470211    0.180881    4.257465
