43 
6ckc_ligand_ani-2x.xyz
 C   -2.205464   -0.518242    1.957892
 C   -3.395358    0.097972    2.198165
 C    5.818870    1.109554   -0.654778
 C    3.525462    1.626258   -0.102224
 C    4.455015   -0.512248    0.494324
 C    4.742789    1.992546   -0.670348
 C    5.673412   -0.144806   -0.068006
 C   -4.410696    0.572271   -1.720950
 C   -3.977343    0.389739    0.918172
 C    3.372577    0.369481    0.481826
 C   -3.075353   -0.073660   -0.048189
 C   -5.150223    0.974682    0.400243
 C    1.189732   -1.097258   -1.125129
 C   -0.244675   -0.590437   -1.187422
 C    1.428490   -1.265746    0.377350
 C   -0.891947   -1.335843   -0.015253
 C    2.055061   -0.055038    1.101313
 N   -3.256549   -0.006259   -1.370304
 N   -5.350550    1.062068   -0.923659
 N   -1.984406   -0.608405    0.595080
 N   -6.099147    1.504656    1.214809
 O    0.134614   -1.475756    0.958494
 O    1.267113   -2.377858   -1.709613
 O   -0.833407   -0.913268   -2.415547
 O    1.156607    1.031380    1.095484
 H   -1.459417   -0.926568    2.626464
 H   -3.810561    0.317773    3.173965
 H    6.768739    1.398849   -1.097421
 H    2.682498    2.311676   -0.106967
 H    4.344210   -1.494573    0.952623
 H    4.848880    2.974878   -1.125316
 H    6.510007   -0.839329   -0.050185
 H   -4.594720    0.653227   -2.787181
 H    1.904897   -0.407667   -1.597852
 H   -0.286700    0.487608   -0.982632
 H    2.028752   -2.167004    0.540302
 H   -1.234389   -2.330349   -0.332779
 H    2.245888   -0.379881    2.139589
 H   -6.978035    1.738612    0.775973
 H   -6.138348    1.191992    2.172040
 H    0.659741   -2.362607   -2.465271
 H   -1.771316   -0.632067   -2.349342
 H    0.335450    0.710047    1.495960
