50 
6cmj_ligand_ani-2x.xyz
 C   37.065530   50.621361    6.881261
 N   35.668804   45.541850   11.309262
 C   39.589926   50.700565    8.898701
 C   38.840679   49.728328    9.555935
 C   39.416031   48.642984   10.230724
 C   41.580048   49.539751    9.677885
 C   40.996221   50.613297    8.995407
 C   41.891767   51.651204    8.413020
 C   38.578337   47.609500   10.852806
 C   38.848862   46.893697   11.986108
 C   34.888729   45.843672   10.275118
 C   35.208012   46.772216    9.264020
 C   37.276591   47.156583   10.405324
 C   34.266249   47.081930    8.161456
 C   33.318924   48.723112    6.646127
 C   34.169210   48.395973    7.694993
 C   37.419053   51.729329    7.879200
 C   36.912041   53.075802    7.357749
 C   38.929698   51.830249    8.128413
 C   40.808380   48.567635   10.287335
 O   41.564220   52.707903    7.917034
 O   43.199310   51.309721    8.492393
 N   37.805145   46.052244   12.286370
 C   36.829608   46.196260   11.336886
 C   36.431154   47.430951    9.336604
 C   33.482442   46.098602    7.552900
 C   32.633348   46.422562    6.500107
 C   32.547281   47.735006    6.042839
 H   37.426451   49.638437    7.203549
 H   35.982685   50.553399    6.717556
 H   37.531964   50.834445    5.910215
 H   37.756996   49.803354    9.557399
 H   42.662165   49.478725    9.728117
 H   39.714023   46.950421   12.639224
 H   33.925092   45.336247   10.245246
 H   33.265687   49.750618    6.292580
 H   34.755560   49.172230    8.179872
 H   36.914472   51.538057    8.837118
 H   37.109352   53.881780    8.074179
 H   37.416560   53.334084    6.417459
 H   35.833771   53.053335    7.163985
 H   39.434297   51.947234    7.162387
 H   39.135268   52.763889    8.664295
 H   41.297859   47.741705   10.796950
 H   43.682950   52.055492    8.101958
 H   37.747530   45.431571   13.076244
 H   36.722475   48.121734    8.545259
 H   33.555824   45.065212    7.884857
 H   32.033684   45.643836    6.036254
 H   31.882735   47.983909    5.220318
