66 
6cn5_ligand_xtb.xyz
 C   -6.807397   32.144464   -1.932597
 C   -7.134722   31.722975   -4.459350
 C   -8.050467   30.362899   -2.447598
 C   -7.293097   31.441694   -2.998328
 C   -8.781261   29.317457   -3.004876
 C   -7.132425   34.775782   -7.189999
 C   -5.917841   35.671873   -7.429965
 O   -8.239893   35.224746   -7.442337
 C  -10.829417   26.368419   -2.181200
 O  -10.961837   26.145123   -0.992678
 C   -7.966602   30.482151   -1.037980
 N   -7.202305   31.576297   -0.753094
 C   -8.599139   29.574769   -0.195771
 C   -9.409883   28.417133   -2.160283
 C   -8.369709   32.450776   -5.009950
 C   -5.897670   32.563444   -4.776571
 C   -9.316934   28.548234   -0.764429
 N  -10.138183   27.379329   -2.749962
 C   -8.198098   32.725740   -6.501829
 C   -5.812970   32.818013   -6.284513
 N   -6.996103   33.505066   -6.741910
 C  -11.463218   25.482737   -3.218665
 N  -11.270379   25.791264   -4.499095
 C  -11.819458   25.026877   -5.424912
 C  -12.590769   23.912066   -5.137114
 C  -12.793160   23.586756   -3.794126
 C  -12.217761   24.388638   -2.811278
 C  -13.572616   22.456324   -3.442100
 N  -14.203475   21.540269   -3.169800
 C   -5.147105   36.058656   -6.163262
 C   -4.115044   37.131722   -6.503970
 C   -3.166029   36.633669   -7.590630
 C   -3.942940   36.250602   -8.847325
 C   -4.977290   35.172066   -8.531583
 C   -6.872892   32.042991    0.562354
 H   -6.190261   33.022552   -1.919028
 H   -7.043405   30.762059   -4.981709
 H   -8.859807   29.206354   -4.076940
 H   -6.372918   36.596535   -7.808113
 H   -8.533941   29.666814    0.877425
 H   -8.495784   33.397530   -4.481316
 H   -9.264733   31.849726   -4.846392
 H   -4.995300   32.051466   -4.437856
 H   -5.966740   33.523022   -4.261723
 H   -9.819874   27.827316   -0.142970
 H  -10.161297   27.369647   -3.765554
 H   -9.043686   33.294540   -6.890538
 H   -8.116127   31.780236   -7.050910
 H   -5.752345   31.855602   -6.810537
 H   -4.917736   33.384956   -6.518449
 H  -11.630935   25.324010   -6.448169
 H  -13.022975   23.311792   -5.922222
 H  -12.339776   24.187002   -1.758511
 H   -4.629054   35.203716   -5.728210
 H   -5.848738   36.439845   -5.417716
 H   -3.548993   37.397077   -5.608222
 H   -4.626183   38.030514   -6.855217
 H   -2.617243   35.762757   -7.222758
 H   -2.436190   37.409970   -7.829064
 H   -3.255115   35.888360   -9.614438
 H   -4.448683   37.134378   -9.241887
 H   -5.561387   34.942478   -9.425317
 H   -4.456362   34.260924   -8.234886
 H   -6.251915   32.933579    0.484968
 H   -7.779166   32.292154    1.120333
 H   -6.324245   31.276968    1.116553
