67 
6cn6_ligand_aiqm1.xyz
 N    1.730965   28.851189   11.940042
 C    0.839832   30.155514   10.084166
 N   -3.609858   33.603341   16.117399
 C   -0.995941   31.370128   11.805700
 C   -0.950945   31.672562   10.423834
 C   -2.596617   32.872723   11.316428
 C   -2.183298   33.311021   16.046311
 C   -7.366965   36.290447   15.464198
 C   -6.006009   35.666801   15.122059
 C   -2.072723   32.160440   12.364514
 C   -5.843438   36.336573   17.396197
 C   -3.998332   34.870134   16.454603
 C   -7.252105   36.749785   16.941091
 C    5.243294   25.539088   13.452333
 C   -0.088442   30.107395   13.813102
 C   -0.078969   30.438258   12.344555
 C    0.817244   29.838991   11.459598
 C   -0.031453   31.081101    9.552239
 N   -1.928952   32.586925   10.147433
 C   -2.199623   33.138153    8.840283
 C   -2.524095   32.251525   13.795801
 C   -1.709586   33.278182   14.596548
 C   -4.425647   32.635882   15.399492
 C   -4.017699   32.572800   13.925924
 O   -3.178706   35.728916   16.749476
 C   -5.480713   35.174469   16.475648
 C    3.048674   28.758068   11.618303
 O    3.613339   29.492146   10.828084
 C    3.784371   27.630221   12.294409
 C    3.493410   27.193141   13.588536
 C    4.221935   26.155888   14.165517
 C    5.544896   25.984050   12.160400
 C    4.825872   27.030625   11.589472
 C    6.611171   25.357062   11.421062
 N    7.466946   24.850705   10.824990
 H    1.357380   28.149296   12.554077
 H    1.579388   29.678722    9.455564
 H   -3.411020   33.580468   11.290907
 H   -2.011832   32.331664   16.510903
 H   -1.663144   34.068636   16.624316
 H   -8.156075   35.543699   15.363027
 H   -7.612289   37.111243   14.792278
 H   -5.320232   36.433178   14.749769
 H   -6.070331   34.877721   14.368979
 H   -5.789127   36.070131   18.452394
 H   -5.126545   37.136675   17.217173
 H   -8.009088   36.249470   17.546624
 H   -7.411818   37.821169   17.050889
 H    5.814901   24.729103   13.883304
 H   -0.141865   31.013260   14.412396
 H   -0.947617   29.487849   14.086807
 H    0.813271   29.577878   14.123076
 H   -0.004030   31.335596    8.500940
 H   -1.331216   33.675244    8.457912
 H   -2.462894   32.350026    8.133474
 H   -3.035196   33.831763    8.920365
 H   -2.370339   31.274428   14.262261
 H   -0.646304   33.036183   14.557017
 H   -1.831121   34.271206   14.154552
 H   -5.479450   32.874833   15.501583
 H   -4.265876   31.655862   15.862995
 H   -4.614508   31.816551   13.411111
 H   -4.233013   33.537928   13.454371
 H   -6.041198   34.285952   16.782888
 H    2.721566   27.681336   14.171319
 H    3.996220   25.832120   15.172126
 H    5.073771   27.394560   10.601954
