21 
6csp_ligand_xtb.xyz
 C   29.853971   -2.936838   -7.996507
 C   27.559735   -2.942713   -6.982016
 C   28.464263   -3.507775   -8.008260
 C   28.094939   -4.487285   -8.831701
 C   29.001521   -5.095456   -9.852686
 C   30.265728   -4.266586  -10.061562
 C   30.839504   -3.854634   -8.709978
 N   26.235965   -2.990583   -7.263842
 O   27.926134   -2.483295   -5.908725
 O   25.374119   -2.383423   -6.343334
 H   30.146654   -2.774161   -6.957096
 H   29.836588   -1.955878   -8.482640
 H   27.106777   -4.922465   -8.764317
 H   28.458753   -5.208353  -10.795131
 H   29.267540   -6.104282   -9.518828
 H   30.023831   -3.370274  -10.636424
 H   30.997560   -4.843358  -10.629422
 H   31.012183   -4.746402   -8.104619
 H   31.794183   -3.343191   -8.840672
 H   25.822032   -3.081179   -8.175545
 H   25.990623   -2.125069   -5.622400
