23 
6csq_ligand_dft.xyz
 C    0.652135   -1.240263    0.193683
 C   -1.414480    0.307637    0.258076
 C    0.080915    0.159920    0.455294
 C    0.802521    1.215733   -0.404765
 C    2.314221    1.179326   -0.172437
 C    2.885318   -0.219392   -0.420048
 C    2.165651   -1.268133    0.431871
 N   -2.065731   -0.685638   -0.412205
 O   -2.037963    1.312601    0.588875
 O   -3.452717   -0.578408   -0.433363
 H    0.452152   -1.526913   -0.848754
 H    0.165605   -1.982453    0.840422
 H    0.253044    0.416287    1.509702
 H    0.393214    2.203655   -0.174917
 H    0.586507    1.012827   -1.463125
 H    2.527237    1.480099    0.862961
 H    2.806311    1.912314   -0.821328
 H    3.960260   -0.235083   -0.208173
 H    2.767455   -0.475201   -1.482463
 H    2.555632   -2.269106    0.216687
 H    2.365035   -1.072115    1.494533
 H   -1.789901   -1.651590   -0.312500
 H   -3.574674    0.304238   -0.021746
