17 
6csr_ligand_ani-2x.xyz
 C   -8.935179   -3.523045   17.733300
 C   -9.362641   -4.552847   16.893658
 C   -8.484702   -5.091336   15.959486
 C   -7.181546   -4.607022   15.864634
 C   -6.750501   -3.591013   16.714838
 C   -7.624219   -3.055726   17.653584
 C   -9.828441   -2.902736   18.752427
 O   -9.423349   -2.274043   19.723847
 N  -11.174616   -3.092179   18.572186
 O  -11.987001   -2.339986   19.415160
 H  -10.370285   -4.950669   16.988751
 H   -8.820354   -5.888803   15.301155
 H   -6.498814   -5.027250   15.130604
 H   -5.731460   -3.218969   16.647458
 H   -7.311839   -2.273019   18.338979
 H  -11.542508   -3.054710   17.629162
 H  -11.331647   -1.944346   20.027873
