17 
6csr_ligand_aiqm1.xyz
 C   -8.934054   -3.509618   17.732452
 C   -9.374663   -4.526456   16.882028
 C   -8.497502   -5.079470   15.954741
 C   -7.186210   -4.615256   15.871408
 C   -6.744602   -3.606728   16.727449
 C   -7.615583   -3.059960   17.660741
 C   -9.828630   -2.885023   18.740241
 O   -9.438243   -2.220558   19.689989
 N  -11.172875   -3.127954   18.584946
 O  -11.975738   -2.370706   19.437599
 H  -10.385186   -4.905189   16.969963
 H   -8.833665   -5.873547   15.301915
 H   -6.507407   -5.044910   15.146567
 H   -5.722913   -3.255664   16.670699
 H   -7.297137   -2.287533   18.347282
 H  -11.543376   -3.098867   17.646914
 H  -11.301315   -1.920260   19.982166
