18 
6css_ligand_xtb.xyz
 C   27.502311   -2.774593   -7.244595
 C   28.356515   -3.516843   -8.179199
 C   28.056285   -4.577939   -8.927163
 C   29.201991   -4.994444   -9.793463
 C   30.390772   -4.192913   -9.236354
 C   29.762040   -3.042624   -8.436350
 N   26.331610   -3.369039   -6.906160
 O   27.758235   -1.662357   -6.802159
 O   25.555805   -2.718764   -5.940816
 H   27.107423   -5.084284   -8.978539
 H   28.988781   -4.728492  -10.832978
 H   29.370001   -6.071887   -9.761340
 H   31.047693   -3.832410  -10.024887
 H   30.978532   -4.825406   -8.570509
 H   30.291042   -2.830512   -7.507912
 H   29.727701   -2.113932   -9.010531
 H   26.115448   -4.348043   -6.977716
 H   26.052615   -1.880517   -5.807328
