40 
6cwi_ligand_ani-2x.xyz
 C   -3.090109    2.504785    1.955707
 C   -2.765967    1.893415    0.614012
 O   -3.111289    2.392473   -0.456717
 N   -2.057415    0.738885    0.662729
 C   -1.826127   -0.080564   -0.515512
 C   -0.599138    0.411666   -1.319895
 O   -0.695127    1.765792   -1.658074
 C    0.657087    0.171229   -0.490917
 O    1.812512    0.384595   -1.283840
 C    3.021018    0.178347   -0.580036
 C    4.163534    0.223066   -1.574760
 C    3.146099    1.300817    0.484818
 O    3.094163    1.159696    1.680378
 O    3.297868    2.499552   -0.094209
 O    3.084444   -1.077274    0.049373
 C    1.955879   -1.416875    0.859585
 C    0.709677   -1.270939    0.006792
 O   -0.445375   -1.594137    0.755538
 C   -1.612861   -1.522590   -0.054785
 O   -2.703990   -1.941486    0.679746
 C   -2.618198   -3.290509    1.094467
 H   -3.648140    3.427325    1.793645
 H   -2.172669    2.729982    2.509882
 H   -3.692558    1.818799    2.560904
 H   -1.849287    0.328926    1.562032
 H   -2.710057   -0.002882   -1.158237
 H   -0.521480   -0.204914   -2.232646
 H   -1.615746    2.056913   -1.508444
 H    0.635751    0.872762    0.356195
 H    5.110066    0.089160   -1.043750
 H    4.180620    1.172635   -2.114258
 H    4.033795   -0.599955   -2.281047
 H    3.332086    3.151756    0.625600
 H    1.904466   -0.772159    1.743740
 H    2.113022   -2.451958    1.172412
 H    0.797385   -1.937970   -0.866116
 H   -1.472308   -2.174640   -0.938969
 H   -3.561054   -3.521549    1.595175
 H   -1.784966   -3.448196    1.788094
 H   -2.495813   -3.964079    0.232990
