39 
6cyg_ligand_dft.xyz
 O    0.520407    3.456291   -0.568270
 C    0.216003    3.219155    0.793682
 C   -1.296810    3.128175    0.929427
 N   -1.787339    2.034294    0.120628
 C   -2.639501    1.087372    0.563977
 O   -3.188379    1.099175    1.656150
 C   -2.882030   -0.066590   -0.426328
 O   -1.844240   -0.150061   -1.419711
 C   -2.858431   -1.409232    0.289327
 O   -3.485347   -2.373445   -0.520429
 C   -1.355678   -1.668855    0.343667
 O   -1.090267   -3.023473    0.533809
 C   -0.912118   -1.128628   -1.036827
 N    0.419576   -0.519618   -0.975433
 C    0.831531    0.633564   -1.588636
 N    2.056266    0.988858   -1.287306
 C    2.489012   -0.012130   -0.440369
 C    1.493646   -0.960770   -0.240426
 N    1.590487   -2.065550    0.516603
 C    2.789533   -2.167616    1.088108
 N    3.832594   -1.339632    0.987126
 C    3.708929   -0.243458    0.224049
 N    4.749990    0.607337    0.133581
 H    1.332984    2.976279   -0.787157
 H    0.665214    2.277408    1.140929
 H    0.594781    4.033243    1.428094
 H   -1.591480    2.939999    1.964513
 H   -1.750189    4.073858    0.609267
 H   -1.395508    1.938513   -0.803285
 H   -3.827437    0.089157   -0.951182
 H   -3.310399   -1.337030    1.283190
 H   -3.094652   -3.224244   -0.272320
 H   -0.909840   -1.047233    1.133173
 H   -0.120913   -3.087088    0.644452
 H   -0.900677   -1.934915   -1.776116
 H    0.172055    1.184563   -2.242090
 H    2.943270   -3.040178    1.717206
 H    5.630971    0.330056    0.536759
 H    4.728882    1.353981   -0.542103
