44 
6czu_ligand_aiqm1.xyz
 C    3.063748    1.348978    0.736840
 C    1.937719    1.144455    1.531689
 C    1.422014   -0.137080    1.723659
 C    2.055183   -1.217574    1.104633
 C    3.180032   -1.010862    0.309938
 C    0.197468   -0.367095    2.575358
 C   -1.550948   -0.385944    0.876160
 C   -3.268474   -0.220490   -0.898468
 O   -0.411061   -3.001264    2.960714
 C   -1.084284   -2.417462    2.119144
 N   -0.862435   -1.067460    1.839449
 C    3.694638    0.272225    0.108696
 C    4.896544    0.500825   -0.782387
 O    5.807116    1.435487   -0.207463
 C    4.500646    1.083274   -2.126696
 C   -2.141853   -3.031510    1.343488
 C   -2.828355   -2.337872    0.399826
 C   -2.533645   -0.960426    0.134968
 C   -2.732154    0.542926   -1.984015
 C   -1.306647    0.793266   -2.337300
 N   -3.689044    1.039656   -2.727181
 O   -4.881908    0.620076   -2.154560
 C   -4.617115   -0.131504   -1.070029
 C   -5.789967   -0.654495   -0.323670
 H    3.465968    2.345692    0.605040
 H    1.465683    1.992450    2.017148
 H    1.672463   -2.218911    1.256761
 H    3.665770   -1.858455   -0.161018
 H    0.429186   -0.996827    3.428920
 H   -0.202955    0.584572    2.933572
 H   -1.260472    0.651424    0.756954
 H    5.397572   -0.461635   -0.940096
 H    6.144197    1.062970    0.610625
 H    3.999057    2.041356   -1.981932
 H    5.388191    1.243923   -2.737806
 H    3.823174    0.408807   -2.651408
 H   -2.340041   -4.071303    1.557460
 H   -3.612054   -2.817879   -0.174496
 H   -1.254812    1.290007   -3.304105
 H   -0.748602   -0.142432   -2.375961
 H   -0.824094    1.426603   -1.590830
 H   -5.457313   -1.270302    0.510664
 H   -6.384920    0.172412    0.065663
 H   -6.423316   -1.254103   -0.978147
