44 
6czu_ligand_xtb.xyz
 C    2.775536    1.355091    0.776892
 C    1.825674    1.033896    1.729900
 C    1.396165   -0.276768    1.880317
 C    1.940325   -1.262811    1.064140
 C    2.887513   -0.941430    0.111995
 C    0.302662   -0.636444    2.848000
 C   -1.317933   -0.509908    1.068270
 C   -2.770868   -0.249465   -0.890403
 O   -0.841993   -3.017157    3.478192
 C   -1.330145   -2.437385    2.521752
 N   -0.835013   -1.189741    2.126945
 C    3.309495    0.373047   -0.045317
 C    4.304109    0.740610   -1.123735
 O    5.107114    1.846844   -0.766034
 C    3.555213    1.118419   -2.403165
 C   -2.409985   -2.928204    1.704837
 C   -2.880770   -2.247867    0.632860
 C   -2.325160   -0.989271    0.281404
 C   -1.961044    0.468301   -1.827616
 C   -0.485786    0.636417   -1.835128
 N   -2.708555    0.978262   -2.768040
 O   -3.994287    0.644915   -2.503103
 C   -4.044189   -0.096918   -1.384881
 C   -5.371683   -0.557164   -0.909075
 H    3.103986    2.377193    0.657075
 H    1.413467    1.810685    2.358704
 H    1.613109   -2.286103    1.179610
 H    3.302522   -1.714921   -0.518140
 H    0.622878   -1.416537    3.547335
 H   -0.016013    0.241133    3.419476
 H   -0.860971    0.449376    0.878512
 H    4.946584   -0.132349   -1.330784
 H    5.563966    1.649822    0.058507
 H    2.912616    1.972549   -2.207876
 H    4.269991    1.389605   -3.174745
 H    2.950267    0.283202   -2.744191
 H   -2.811513   -3.888866    1.986732
 H   -3.669391   -2.662464    0.023296
 H   -0.153635    0.836324   -2.849897
 H    0.002456   -0.257814   -1.452624
 H   -0.193652    1.480417   -1.211199
 H   -5.349666   -0.715554    0.165915
 H   -6.123514    0.188488   -1.156878
 H   -5.649985   -1.490953   -1.398038
