41 
6d1x_ligand_ani-2x.xyz
 C    2.577438   -1.108870    0.636407
 O    3.298329   -1.096393   -0.351368
 N    2.564594   -0.134878    1.578787
 C    3.317577    1.095167    1.419798
 C    2.461402    2.275240    0.950613
 C    1.765524    2.029687   -0.388124
 C    1.580581   -2.242497    0.917274
 O    0.385166   -1.668473    1.482310
 C    1.153406   -2.958246   -0.356970
 O    0.717641   -4.248299   -0.001137
 C   -0.027730   -2.108759   -0.810223
 O   -0.910496   -2.850302   -1.602744
 C   -0.662269   -1.684208    0.526344
 N   -1.269577   -0.366686    0.449746
 C   -1.168809    0.668399    1.360716
 N   -1.888210    1.715743    1.062561
 C   -2.527904    1.351602   -0.109887
 C   -3.457368    2.008663   -0.937739
 N   -3.889296    3.249297   -0.638638
 N   -3.922832    1.389248   -2.033601
 C   -3.479970    0.159167   -2.290705
 N   -2.605090   -0.572205   -1.588699
 C   -2.162390    0.071747   -0.504796
 H    1.835870   -0.176436    2.276253
 H    4.098917    0.884590    0.683941
 H    3.806189    1.338475    2.370492
 H    3.117087    3.152697    0.873218
 H    1.716480    2.519862    1.721960
 H    1.333955    2.958869   -0.774212
 H    0.948969    1.302489   -0.292803
 H    2.467715    1.645700   -1.137367
 H    1.997852   -2.952078    1.639710
 H    1.965400   -2.979881   -1.096538
 H    0.046121   -4.496411   -0.654517
 H    0.331088   -1.209903   -1.332933
 H   -1.648343   -2.248393   -1.832825
 H   -1.418710   -2.418053    0.831787
 H   -0.543129    0.567591    2.235973
 H   -4.522724    3.722172   -1.262567
 H   -3.507228    3.721683    0.165530
 H   -3.875328   -0.307515   -3.185727
