12 
6d2o_ligand_ani-2x.xyz
 C    3.343737   -0.929496    7.935515
 N    2.328765   -0.184618    7.369974
 C    4.455384   -0.151490    8.102193
 C    2.824856    1.015408    7.203119
 N    4.112853    1.095000    7.629460
 C    3.162888   -2.375147    8.282498
 H    5.435759   -0.364980    8.504410
 H    2.299865    1.862283    6.779996
 H    4.704972    1.909434    7.605035
 H    4.077520   -2.786609    8.718892
 H    2.349271   -2.505862    9.003733
 H    2.912130   -2.962922    7.393176
