21 
6d50_ligand_xtb.xyz
 C   -0.645118    1.737213    0.029243
 C   -1.312076    0.453690   -0.441224
 C   -0.996194   -0.618084    0.617643
 C    0.520049   -0.863659    0.670110
 C    1.313782    0.420469    0.323432
 C    1.852526    0.329513   -1.106451
 O   -1.254711    2.769701    0.086601
 O   -2.695193    0.639634   -0.548799
 O   -1.628911   -1.833605    0.321549
 O    0.940944   -1.280491    1.938924
 O    0.601707    1.629645    0.485810
 O    1.325076    0.826353   -2.060467
 O    2.966088   -0.388872   -1.158594
 H   -0.906782    0.144382   -1.415460
 H   -1.333662   -0.245623    1.600524
 H    0.749296   -1.640034   -0.078221
 H    2.156692    0.478282    1.020208
 H   -2.867176    1.588514   -0.420775
 H   -2.524254   -1.626169    0.020964
 H    0.438241   -2.066762    2.184687
 H    3.299278   -0.453997   -2.069903
