21 
6d50_ligand_aiqm1.xyz
 C   -0.668540    1.740709   -0.003559
 C   -1.321830    0.440973   -0.429108
 C   -0.999163   -0.589183    0.638021
 C    0.491601   -0.875087    0.605236
 C    1.299812    0.406373    0.315093
 C    1.902249    0.363111   -1.080981
 O   -1.241778    2.792768   -0.011649
 O   -2.711377    0.589430   -0.541092
 O   -1.678541   -1.810439    0.434678
 O    0.953317   -1.361710    1.848788
 O    0.584394    1.630287    0.486816
 O    1.438584    0.907698   -2.046258
 O    3.006939   -0.392964   -1.095138
 H   -0.896688    0.117704   -1.385433
 H   -1.260991   -0.171705    1.618788
 H    0.686825   -1.603710   -0.191298
 H    2.108922    0.450470    1.037910
 H   -2.897970    1.533862   -0.519732
 H   -2.603063   -1.602747    0.272445
 H    0.469353   -2.166027    2.049550
 H    3.337547   -0.399713   -2.003276
