57 
6dar_ligand_aiqm1.xyz
 O   19.823782   27.967783    6.234714
 C   20.948508   28.439710    6.157273
 C   21.471767   28.967894    4.854675
 C   21.304362   30.303184    4.497233
 C   21.779510   30.748427    3.265494
 C   22.409100   29.871364    2.396694
 C   22.561212   28.526228    2.750277
 O   23.184068   27.741920    1.829899
 C   23.189951   26.346286    2.075314
 C   22.093990   28.070719    3.981184
 N   21.789922   28.487870    7.231807
 C   23.181446   28.932870    7.156869
 C   23.512160   29.947070    8.223119
 C   23.078739   31.376526    8.047507
 C   24.535488   31.007395    7.936226
 C   21.410012   27.703906    8.408236
 C   22.156904   26.385415    8.455923
 C   22.804757   25.955610    9.615917
 C   23.511858   24.753880    9.623484
 C   23.593332   23.981401    8.469650
 C   22.957306   24.404458    7.296114
 C   23.042893   23.621274    6.062842
 C   23.293582   22.268724    5.942004
 N   23.241481   22.023749    4.589478
 C   23.439229   20.915782    3.670097
 C   22.788621   21.479722    2.390421
 C   22.959525   23.010573    2.494136
 C   22.990839   23.203199    3.973774
 N   22.854340   24.202577    4.813449
 C   22.237983   25.599869    7.307168
 H   20.804219   30.984205    5.172111
 H   21.653130   31.784596    2.977323
 H   22.783714   30.200741    1.437179
 H   23.769466   26.090789    2.963703
 H   22.174969   25.969177    2.209241
 H   23.635799   25.892843    1.193768
 H   22.201285   27.032941    4.266063
 H   23.354341   29.366332    6.175133
 H   23.837721   28.060312    7.258531
 H   23.492625   29.572414    9.238897
 H   22.756424   31.926457    8.919695
 H   22.557975   31.613778    7.128841
 H   24.975925   31.015524    6.948129
 H   25.198473   31.304030    8.735597
 H   20.335925   27.542197    8.335262
 H   21.615355   28.285083    9.311297
 H   22.760102   26.561083   10.513618
 H   24.010192   24.426723   10.528013
 H   24.164743   23.061913    8.472172
 H   23.459082   21.498323    6.674048
 H   22.954574   20.011436    4.029667
 H   24.504510   20.721598    3.532672
 H   21.727538   21.235056    2.395043
 H   23.234049   21.065110    1.490082
 H   22.162115   23.564413    2.008571
 H   23.912986   23.330081    2.062509
 H   21.736397   25.917659    6.403456
