57 
6dar_ligand_ani-2x.xyz
 O   20.384364   27.378439    5.416064
 C   21.210990   28.241766    5.681791
 C   21.660972   29.220487    4.636668
 C   21.809997   30.576661    4.910318
 C   22.257178   31.437633    3.911841
 C   22.528112   30.956240    2.641624
 C   22.338461   29.597300    2.356642
 O   22.617415   29.221223    1.079814
 C   22.433106   27.862143    0.756317
 C   21.888675   28.732281    3.350209
 N   21.775209   28.353109    6.933605
 C   23.127483   28.855224    7.172708
 C   23.185935   29.974365    8.186870
 C   23.472760   31.390470    7.768178
 C   24.521075   30.589187    8.488765
 C   21.224522   27.496117    7.982538
 C   22.040139   26.238351    8.236271
 C   22.658979   26.015975    9.468526
 C   23.427191   24.871877    9.678630
 C   23.584057   23.941572    8.661580
 C   22.966948   24.151224    7.426139
 C   23.102769   23.196591    6.327748
 C   23.794574   22.004044    6.285305
 N   23.576974   21.525652    5.021478
 C   23.970679   20.390152    4.204669
 C   22.946193   20.473820    3.052932
 C   22.537876   21.962110    2.973315
 C   22.793116   22.423757    4.374002
 N   22.476225   23.452404    5.117257
 C   22.197261   25.296301    7.224531
 H   21.568958   30.952660    5.897656
 H   22.400638   32.492230    4.131821
 H   22.880884   31.604601    1.846169
 H   23.081270   27.216407    1.362519
 H   21.388295   27.556698    0.896738
 H   22.702469   27.760729   -0.295988
 H   21.704600   27.677998    3.161494
 H   23.567873   29.179631    6.224249
 H   23.742157   28.013544    7.527523
 H   22.514980   29.855445    9.035408
 H   22.979515   32.190250    8.315389
 H   23.625367   31.588586    6.707368
 H   25.381192   30.247273    7.917996
 H   24.751766   30.844176    9.520019
 H   20.210362   27.236888    7.666307
 H   21.161744   28.075010    8.911177
 H   22.544886   26.748771   10.264016
 H   23.906544   24.709609   10.640162
 H   24.185950   23.051938    8.829421
 H   24.393653   21.466056    7.004687
 H   23.897651   19.457574    4.768236
 H   25.000547   20.509939    3.850180
 H   22.070363   19.872119    3.309224
 H   23.351945   20.097546    2.113441
 H   21.501428   22.102168    2.660085
 H   23.180918   22.515926    2.279357
 H   21.715107   25.429952    6.260614
