54 
6das_ligand_xtb.xyz
 C    3.672958   -1.582742    1.564029
 C    4.887721   -1.840927    0.955521
 C    0.487268    2.754154   -0.265837
 C   -2.486837    2.863373    1.918865
 C   -1.277819    3.114841    1.297743
 C   -0.876085    2.334516    0.217946
 C   -0.244105    4.153203    1.623228
 C   -3.279118    1.829899    1.450690
 C   -2.878222    1.038931    0.372536
 C   -3.742897   -0.034305   -0.082122
 C   -3.557105   -0.920679   -1.125178
 C   -5.460256   -1.292191   -0.114820
 C    4.339096   -0.201746   -0.730132
 C    2.236090    1.078567   -0.719461
 C    3.130678    0.062611   -0.090571
 C    2.792841   -0.640106    1.057154
 C   -5.181858   -2.831662   -1.857103
 O    2.215179    1.272965   -1.921631
 C    5.848159   -2.850607    1.498868
 C    5.220020   -1.139374   -0.216352
 O    6.424922   -1.452878   -0.770625
 C    6.801880   -0.803423   -1.960496
 N    1.480952    1.784292    0.151223
 C    0.695881    4.126303    0.405820
 N   -4.664260   -1.708619   -1.129726
 C   -6.685920   -2.131421   -0.039371
 C   -6.654054   -2.867681   -1.395014
 N   -4.944821   -0.291358    0.536874
 C   -1.653053    1.296776   -0.247675
 H    3.406331   -2.133566    2.454695
 H    0.564492    2.802815   -1.355461
 H   -2.810724    3.464378    2.756477
 H    0.283908    3.880857    2.541808
 H   -0.685270    5.138085    1.778737
 H   -4.229756    1.610064    1.910137
 H   -2.762600   -1.037900   -1.832062
 H    4.552164    0.347672   -1.633229
 H    1.839208   -0.489598    1.542244
 H   -5.084321   -2.692704   -2.936602
 H   -4.646472   -3.746181   -1.573800
 H    5.458704   -3.311602    2.402506
 H    6.037850   -3.622842    0.754958
 H    6.802663   -2.375707    1.720519
 H    6.091084   -1.000646   -2.768818
 H    6.894844    0.277725   -1.816498
 H    7.774172   -1.216449   -2.225456
 H    1.530527    1.578269    1.135821
 H    0.411166    4.909861   -0.295929
 H    1.739597    4.276850    0.678497
 H   -7.588771   -1.538465    0.094139
 H   -6.610968   -2.828860    0.798630
 H   -7.027214   -3.886959   -1.320193
 H   -7.271909   -2.329724   -2.114648
 H   -1.315537    0.699418   -1.080651
