54 
6das_ligand_dft.xyz
 C    3.829219   -2.184232    1.218889
 C    5.192126   -2.167967    0.951660
 C    0.509631    2.026697   -0.851235
 C   -2.189764    2.890896    1.531144
 C   -1.020343    2.870785    0.779283
 C   -0.847922    1.891649   -0.198894
 C    0.191365    3.771633    0.851853
 C   -3.173832    1.937624    1.289809
 C   -3.005795    0.951627    0.307398
 C   -4.075291   -0.028099    0.067651
 C   -4.176013   -0.948191   -0.956410
 C   -5.920124   -1.048095    0.376240
 C    4.820829   -0.271301   -0.523732
 C    2.605801    0.744659   -0.896902
 C    3.456075   -0.296594   -0.225239
 C    2.956282   -1.262686    0.642047
 C   -6.130990   -2.675839   -1.316425
 O    2.978044    1.327679   -1.907974
 C    6.143172   -3.155400    1.568913
 C    5.680169   -1.193789    0.059702
 O    7.018691   -1.238504   -0.168406
 C    7.566323   -0.304633   -1.072958
 N    1.401737    1.003300   -0.317834
 C    0.925240    3.467924   -0.471400
 N   -5.371012   -1.582078   -0.742928
 C   -7.204665   -1.743449    0.707059
 C   -7.500021   -2.505034   -0.611229
 N   -5.179108   -0.105016    0.898645
 C   -1.817824    0.928991   -0.432896
 H    3.437540   -2.942499    1.892125
 H    0.488889    1.893448   -1.935568
 H   -2.343281    3.646665    2.297220
 H    0.811228    3.510690    1.720370
 H   -0.068041    4.830086    0.954941
 H   -4.098410    1.942228    1.857531
 H   -3.541813   -1.172339   -1.799929
 H    5.164548    0.479760   -1.224681
 H    1.892461   -1.338315    0.847174
 H   -6.201972   -2.583295   -2.403233
 H   -5.656107   -3.634641   -1.078440
 H    5.615229   -3.840246    2.238201
 H    6.652408   -3.744285    0.798483
 H    6.924667   -2.642951    2.140113
 H    7.128933   -0.412267   -2.073242
 H    7.418745    0.725342   -0.724722
 H    8.634349   -0.520926   -1.119045
 H    1.209274    0.653557    0.608219
 H    0.565064    4.147800   -1.251050
 H    2.010636    3.572418   -0.414641
 H   -8.002463   -1.048857    0.978971
 H   -7.063959   -2.432744    1.548042
 H   -7.992266   -3.465609   -0.445371
 H   -8.153712   -1.897528   -1.243994
 H   -1.649042    0.164609   -1.187587
