54 
6das_ligand_ani-2x.xyz
 C    3.920882   -2.023580    1.052028
 C    5.280410   -1.935366    0.775440
 C    0.424213    2.232741   -0.563653
 C   -2.425842    2.794733    1.750987
 C   -1.219921    2.879634    1.062407
 C   -0.956553    1.999464    0.011160
 C   -0.051419    3.816188    1.271504
 C   -3.352047    1.832736    1.369841
 C   -3.091161    0.954270    0.311170
 C   -4.094934   -0.045420   -0.060621
 C   -4.046027   -0.989721   -1.064163
 C   -5.933075   -1.102130    0.057298
 C    4.818944    0.092823   -0.493389
 C    2.568104    1.063818   -0.722452
 C    3.463680   -0.006565   -0.175778
 C    3.011106   -1.077615    0.588128
 C   -5.919562   -2.765356   -1.611590
 O    2.920517    1.781322   -1.649447
 C    6.268334   -2.948552    1.282596
 C    5.717825   -0.853658   -0.015776
 O    7.057239   -0.824972   -0.264426
 C    7.539599    0.233106   -1.055731
 N    1.352747    1.200631   -0.120607
 C    0.762120    3.649457   -0.031178
 N   -5.239122   -1.653212   -0.970406
 C   -7.243872   -1.806077    0.223309
 C   -7.368329   -2.560485   -1.119601
 N   -5.289266   -0.126112    0.641023
 C   -1.874374    1.041901   -0.373147
 H    3.559717   -2.854813    1.654882
 H    0.438776    2.210975   -1.656675
 H   -2.647089    3.468323    2.576464
 H    0.533152    3.506174    2.147560
 H   -0.361560    4.852513    1.438630
 H   -4.300986    1.746543    1.890556
 H   -3.309225   -1.240913   -1.812465
 H    5.127205    0.924081   -1.121175
 H    1.953681   -1.212242    0.804140
 H   -5.830084   -2.705934   -2.698372
 H   -5.500212   -3.719517   -1.273409
 H    5.763323   -3.719076    1.872945
 H    6.795627   -3.440364    0.457693
 H    7.032891   -2.480941    1.912830
 H    7.088342    0.220416   -2.056224
 H    7.341443    1.204913   -0.585632
 H    8.616756    0.084356   -1.141419
 H    1.170205    0.726574    0.749972
 H    0.411283    4.376930   -0.772639
 H    1.839744    3.789052    0.091574
 H   -8.075480   -1.122351    0.404945
 H   -7.184556   -2.501679    1.068616
 H   -7.907684   -3.503339   -1.024770
 H   -7.904156   -1.933991   -1.837358
 H   -1.650924    0.365807   -1.195394
