18 
6dcy_ligand_aiqm1.xyz
 O  -16.913651   16.519128  134.394410
 C  -17.637893   16.819634  135.461684
 O  -17.235949   16.627386  136.583695
 C  -18.986899   17.412986  135.191148
 C  -19.421178   17.623820  133.834890
 O  -18.769816   17.355084  132.813503
 C  -20.741072   18.203183  133.663085
 O  -21.164070   18.407716  132.404377
 C  -21.479480   18.508951  134.746044
 O  -21.028661   18.292216  136.008364
 C  -19.817649   17.759632  136.230968
 C  -19.537770   17.614429  137.687302
 H  -17.424398   16.754628  133.587491
 H  -20.435061   18.098123  131.843888
 H  -22.466522   18.940614  134.723983
 H  -19.329359   16.574248  137.919033
 H  -18.637086   18.163875  137.944288
 H  -20.383387   17.973649  138.265147
