51 
6df4_ligand_aiqm1.xyz
 C   12.704230   17.797171    4.998108
 C   13.028273   20.076754    5.752662
 C   14.887343   18.507562    5.872318
 C   15.777480   19.384827    6.408125
 C   15.274584   20.713868    6.666100
 C   15.812962   21.896664    7.249015
 C   14.801779   22.841093    7.236195
 C   13.957086   21.002317    6.329511
 C   11.864982   17.141217    6.095445
 C   20.578498   15.269160    6.527659
 C   19.818952   18.221215    7.258457
 C   19.553362   19.452473    6.668757
 C   11.023228   14.799598    5.809756
 N   13.584791   18.829526    5.537123
 C   10.944537   16.102479    5.535251
 O   18.201662   15.674322    9.136152
 C   17.171006   18.982042    6.702205
 N   20.064907   15.301720    7.894546
 O   11.859190   20.339731    5.475946
 C   19.980864   14.073335    5.788403
 C   20.283151   14.035352    8.588701
 C   18.762703   17.357680    7.566332
 C   18.243031   19.827106    6.382940
 N   13.686614   22.293242    6.675235
 C   19.699561   12.882872    7.781047
 C   18.970235   16.043887    8.259035
 O   20.254592   12.864561    6.471654
 C   17.451467   17.753121    7.302704
 H   12.057611   18.266972    4.261131
 H   13.325215   17.054475    4.493319
 H   15.163455   17.484777    5.651337
 H   16.801244   22.047314    7.648522
 H   14.798745   23.859563    7.586656
 H   12.530898   16.691233    6.838201
 H   11.290939   17.923953    6.594301
 H   21.666382   15.172813    6.559708
 H   20.319590   16.188295    6.008989
 H   20.837668   17.940917    7.496098
 H   20.369199   20.122632    6.430262
 H   11.776106   14.417190    6.489580
 H   10.336356   14.085798    5.376940
 H   10.180403   16.458111    4.849238
 H   20.420842   13.975699    4.797353
 H   18.895706   14.207401    5.686705
 H   19.818567   14.099269    9.569155
 H   21.360502   13.888508    8.703980
 H   18.046672   20.782554    5.914168
 H   12.790996   22.727047    6.541484
 H   18.608749   12.978374    7.727758
 H   19.952170   11.925330    8.233306
 H   16.648915   17.091881    7.602424
