51 
6df4_ligand_xtb.xyz
 C   12.777600   17.808785    5.025654
 C   13.079401   20.120811    5.697350
 C   14.914863   18.544155    5.902189
 C   15.802420   19.429698    6.431381
 C   15.319108   20.758167    6.637609
 C   15.851965   21.941710    7.197868
 C   14.865270   22.890752    7.137802
 C   14.003777   21.053385    6.266173
 C   12.167138   16.976901    6.162007
 C   20.255405   15.285187    6.456880
 C   19.790330   18.283102    7.389295
 C   19.540463   19.499597    6.779012
 C   11.455544   14.614397    5.820568
 N   13.636111   18.855359    5.542739
 C   11.278453   15.905870    5.617035
 O   18.426799   15.920371    9.482401
 C   17.175088   19.032236    6.760308
 N   19.816750   15.263560    7.833220
 O   11.924312   20.363308    5.369627
 C   19.631118   14.094721    5.712747
 C   20.092918   13.998299    8.485808
 C   18.731572   17.427378    7.678014
 C   18.247367   19.869115    6.457354
 N   13.755624   22.355655    6.574086
 C   19.478119   12.856139    7.673515
 C   18.956730   16.142520    8.408950
 O   19.941872   12.874771    6.339833
 C   17.433094   17.811615    7.378389
 H   11.979193   18.300155    4.463806
 H   13.353391   17.166534    4.354135
 H   15.204479   17.522655    5.703445
 H   16.831048   22.072840    7.612272
 H   14.886659   23.912896    7.462787
 H   12.962899   16.536925    6.767267
 H   11.581677   17.648044    6.796209
 H   21.347433   15.190287    6.432505
 H   19.960974   16.217257    5.975973
 H   20.798620   18.001245    7.655202
 H   20.361470   20.163432    6.550753
 H   12.271541   14.240531    6.417790
 H   10.789493   13.874775    5.410610
 H   10.450857   16.258491    5.015987
 H   20.024980   14.027315    4.697389
 H   18.538298   14.229958    5.671720
 H   19.664377   14.034387    9.488021
 H   21.178296   13.864701    8.546574
 H   18.062522   20.806996    5.956468
 H   12.874680   22.813813    6.408175
 H   18.381411   12.946831    7.689780
 H   19.767539   11.887909    8.083570
 H   16.616952   17.159459    7.651742
