21 
6dhu_ligand_ani-2x.xyz
 C    6.069255  -14.353663  -34.121846
 C    7.171464  -13.558259  -34.438887
 C    6.941266  -12.083508  -34.550451
 C    8.430665  -14.150267  -34.610352
 C    9.556285  -13.374738  -35.209613
 C    8.594293  -15.502932  -34.328169
 C    6.227158  -15.708063  -33.870086
 C    7.750400  -17.712665  -33.669552
 C    7.502036  -16.276915  -33.951051
 O    8.828860  -18.257270  -33.736598
 O    6.634182  -18.383246  -33.321272
 O    6.019707  -11.589266  -35.152767
 O    7.826450  -11.369490  -33.837401
 O    9.419718  -12.392793  -35.898219
 O   10.760779  -13.903151  -34.920287
 H    5.091548  -13.887641  -34.062935
 H    9.570095  -15.967311  -34.412551
 H    5.377902  -16.328369  -33.604129
 H    6.921124  -19.297499  -33.164777
 H    7.616762  -10.435444  -33.999964
 H   11.413050  -13.338510  -35.366093
