33 
6di0_ligand_xtb.xyz
 N   21.004762    6.514977    1.847864
 C   21.540199    6.639403    0.630118
 C   19.838275    5.911619    1.970779
 C   19.696273    5.490892   -0.366821
 C   20.904262    6.118441   -0.515809
 C   23.980576    9.190924    1.407450
 C   25.483829    7.334684    3.113369
 O   17.389460    3.931432    0.184580
 C   17.811247    4.694889    1.031221
 N   17.103119    4.960288    2.160969
 C   19.115549    5.387075    0.906617
 N   22.711953    7.303940    0.522609
 C   23.489712    7.762962    1.650171
 C   24.784946    9.686596    2.605594
 C   25.967842    8.761889    2.876129
 C   24.680634    6.836118    1.916183
 H   19.491204    5.828449    2.993969
 H   19.169207    5.068085   -1.209146
 H   21.372927    6.218269   -1.483409
 H   23.125083    9.845212    1.230354
 H   24.610196    9.208227    0.513679
 H   24.853385    7.308932    4.004446
 H   26.336597    6.675286    3.286388
 H   16.197610    4.533014    2.259703
 H   17.374361    5.671717    2.813623
 H   23.163789    7.308743   -0.378472
 H   22.814658    7.740841    2.509945
 H   24.139053    9.715008    3.485520
 H   25.140142   10.701622    2.417045
 H   26.644791    8.778068    2.018720
 H   26.523596    9.115252    3.746671
 H   24.315073    5.824425    2.101311
 H   25.321790    6.809120    1.030728
