21 
6die_ligand_dft.xyz
 C    6.096311  -14.336720  -34.054508
 C    7.184991  -13.555679  -34.432761
 C    6.931636  -12.086989  -34.608041
 C    8.443294  -14.151792  -34.605736
 C    9.577813  -13.365501  -35.172245
 C    8.597176  -15.512245  -34.356992
 C    6.252618  -15.695701  -33.811823
 C    7.739557  -17.734399  -33.707746
 C    7.508398  -16.283890  -33.955208
 O    8.804692  -18.291012  -33.836785
 O    6.625926  -18.381437  -33.317621
 O    6.031849  -11.635444  -35.271749
 O    7.751032  -11.338675  -33.855615
 O    9.453760  -12.381425  -35.861837
 O   10.774866  -13.895806  -34.868972
 H    5.124317  -13.867595  -33.945864
 H    9.561913  -15.989066  -34.487568
 H    5.403181  -16.298616  -33.511821
 H    6.882666  -19.307772  -33.186162
 H    7.540469  -10.412584  -34.056718
 H   11.436538  -13.348650  -35.321229
