21 
6dim_ligand_xtb.xyz
 C   -6.835600  -14.832582   32.312621
 C   -6.701630  -15.850626   31.351720
 C   -7.337410  -15.745887   30.142938
 C   -8.128451  -14.627868   29.844697
 C   -8.277584  -13.620778   30.760309
 C   -7.635959  -13.702652   32.009070
 C   -7.759814  -12.680215   32.996029
 C   -6.318926  -14.027686   34.380864
 N   -6.194087  -14.966885   33.497426
 C   -7.202672  -11.800266   35.239616
 C   -7.083472  -12.847127   34.213990
 O   -6.558660  -11.957095   36.399548
 O   -7.868722  -10.795189   35.066667
 O   -8.504905  -11.624553   32.717605
 H   -6.088900  -16.702522   31.600178
 H   -7.231955  -16.529891   29.407594
 H   -8.620695  -14.565788   28.885864
 H   -8.882187  -12.752281   30.549535
 H   -5.773784  -14.212468   35.302086
 H   -6.057297  -12.781370   36.450396
 H   -8.487989  -11.013070   33.499448
