21 
6dim_ligand_ani-2x.xyz
 C   -6.837455  -14.831929   32.305553
 C   -6.701214  -15.857897   31.337223
 C   -7.337139  -15.755758   30.126598
 C   -8.136014  -14.628531   29.827136
 C   -8.284667  -13.619975   30.748124
 C   -7.636272  -13.706984   32.003389
 C   -7.754303  -12.687683   33.001847
 C   -6.313436  -14.032318   34.383768
 N   -6.182021  -14.981287   33.499555
 C   -7.204018  -11.788854   35.255937
 C   -7.081989  -12.844443   34.221955
 O   -6.568064  -11.924182   36.424474
 O   -7.873130  -10.782773   35.081794
 O   -8.501607  -11.629515   32.726447
 H   -6.081284  -16.709897   31.597419
 H   -7.228823  -16.546204   29.387586
 H   -8.632295  -14.565026   28.862585
 H   -8.894212  -12.748324   30.533805
 H   -5.766019  -14.212579   35.313385
 H   -6.066781  -12.748271   36.468831
 H   -8.469958  -11.034371   33.520789
