21 
6djd_ligand_aiqm1.xyz
 C   -6.934910  -14.958510   32.138887
 C   -6.830401  -15.955658   31.145629
 C   -7.461207  -15.799077   29.933626
 C   -8.223740  -14.640109   29.660895
 C   -8.340327  -13.655932   30.611491
 C   -7.697061  -13.802342   31.863530
 C   -7.789794  -12.807664   32.879498
 C   -6.396534  -14.227528   34.236034
 N   -6.284516  -15.164811   33.333305
 C   -7.225386  -11.992258   35.137432
 C   -7.130072  -13.018753   34.088822
 O   -6.598699  -12.175651   36.306228
 O   -7.862428  -10.963281   34.984461
 O   -8.504967  -11.717727   32.627781
 H   -6.243012  -16.833651   31.374052
 H   -7.374111  -16.570299   29.179195
 H   -8.714014  -14.531616   28.702753
 H   -8.916907  -12.759307   30.430275
 H   -5.869374  -14.425010   35.167636
 H   -6.129158  -13.013732   36.319437
 H   -8.452482  -11.155083   33.435434
