21 
6djd_ligand_ani-2x.xyz
 C   -6.939671  -14.956319   32.131529
 C   -6.831693  -15.960715   31.137351
 C   -7.459000  -15.807322   29.927643
 C   -8.220778  -14.648096   29.654841
 C   -8.341534  -13.659498   30.601194
 C   -7.701476  -13.799320   31.855967
 C   -7.791589  -12.802949   32.880146
 C   -6.399639  -14.227676   34.231626
 N   -6.294320  -15.157098   33.323478
 C   -7.222905  -11.980574   35.158700
 C   -7.129751  -13.012365   34.098079
 O   -6.596757  -12.166288   36.325623
 O   -7.859117  -10.949622   35.008399
 O   -8.504115  -11.714980   32.629812
 H   -6.239957  -16.838282   31.377443
 H   -7.372498  -16.581430   29.168731
 H   -8.710765  -14.544079   28.690588
 H   -8.922480  -12.763816   30.407515
 H   -5.862063  -14.449032   35.158102
 H   -6.121929  -13.006711   36.350230
 H   -8.457064  -11.141827   33.439404
