20 
6djj_ligand_xtb.xyz
 C   -6.822252  -12.267437   34.766984
 C   -5.963472  -14.423948   33.999929
 C   -6.061639  -15.764785   33.627844
 C   -7.306588  -16.391505   33.752504
 C   -8.394474  -15.684658   34.203619
 C   -8.322653  -14.326229   34.528695
 C   -9.619944  -13.740550   35.016612
 C   -7.070571  -13.700306   34.437764
 N   -4.957209  -16.461779   33.227825
 O   -9.885219  -12.461718   34.791831
 O  -10.427792  -14.451698   35.559983
 O   -5.711254  -12.013645   35.462993
 O   -7.532114  -11.358691   34.407112
 H   -5.004758  -13.931283   33.896554
 H   -7.403559  -17.434469   33.491136
 H   -9.351545  -16.170979   34.313416
 H   -4.146521  -15.945745   32.931786
 H   -5.100336  -17.353473   32.785903
 H   -9.131126  -11.939141   34.436923
 H   -5.246074  -12.819560   35.728886
