20 
6djj_ligand_aiqm1.xyz
 C   -6.815868  -12.256842   34.771645
 C   -5.962533  -14.418892   33.998297
 C   -6.054338  -15.768856   33.646779
 C   -7.292457  -16.405567   33.781233
 C   -8.389936  -15.695428   34.229121
 C   -8.327806  -14.329958   34.544491
 C   -9.651033  -13.747528   34.995010
 C   -7.074324  -13.696929   34.442003
 N   -4.925551  -16.467715   33.251139
 O   -9.887546  -12.450165   34.814313
 O  -10.499743  -14.467989   35.457600
 O   -5.681490  -11.998147   35.433046
 O   -7.530607  -11.337913   34.441096
 H   -4.998599  -13.928291   33.889668
 H   -7.387297  -17.458386   33.543694
 H   -9.344447  -16.188683   34.348263
 H   -4.183434  -15.917059   32.852800
 H   -5.097540  -17.318073   32.741620
 H   -9.098954  -11.965500   34.499352
 H   -5.255596  -12.823677   35.687130
