24 
6dlj_ligand_xtb.xyz
 C   33.523112   76.830624   62.301848
 C   33.198249   74.548027   62.928337
 C   35.425987   75.426876   62.652476
 C   35.825745   77.813629   62.002554
 C   36.157906   78.677187   63.123406
 C   36.947553   79.758064   62.928416
 C   37.285222   80.692720   64.068861
 C   34.907779   76.672177   62.325953
 C   32.665107   75.779335   62.600954
 C   34.575106   74.374852   62.951386
 N   32.982569   78.115091   61.952169
 O   36.334082   77.932815   60.894698
 O   38.012797   81.741259   63.700397
 O   36.931059   80.492702   65.195778
 O   37.487456   80.095899   61.760515
 O   31.781037   78.242383   61.928504
 O   33.779677   79.001271   61.706047
 H   32.544044   73.722915   63.161765
 H   36.495779   75.286428   62.668022
 H   35.751158   78.488686   64.101383
 H   31.599755   75.949113   62.568055
 H   34.990932   73.411072   63.202119
 H   38.190703   81.710971   62.743478
 H   37.188188   79.421505   61.091480
