24 
6dlj_ligand_aiqm1.xyz
 C   33.369906   76.724917   62.071006
 C   33.276411   74.473776   62.877629
 C   35.281281   75.792488   63.154152
 C   35.505122   78.092756   62.192117
 C   36.371172   78.658304   63.214976
 C   37.111916   79.759360   62.948182
 C   37.995901   80.365341   64.007692
 C   34.691013   76.877015   62.501353
 C   32.660864   75.546991   62.239897
 C   34.582349   74.602246   63.342094
 N   32.623491   77.855934   61.495685
 O   35.465655   78.592523   61.064885
 O   38.651419   81.464175   63.627867
 O   38.101021   79.889508   65.103061
 O   37.144683   80.396260   61.779882
 O   31.834898   77.610554   60.601310
 O   32.814027   78.952538   61.996731
 H   32.735637   73.547648   63.014002
 H   36.304771   75.873855   63.496140
 H   36.419515   78.243490   64.210265
 H   31.644328   75.492282   61.877247
 H   35.063209   73.775853   63.847235
 H   38.417734   81.668932   62.713084
 H   36.514678   79.928853   61.182106
