74 
6dn6_ligand_ani-2x.xyz
 N   -2.220946    1.161116   -0.165564
 C   -2.537873   -0.065312    0.555963
 C   -1.832804   -1.286613   -0.066450
 O   -2.387749   -2.383433   -0.075154
 C   -4.055283   -0.314611    0.712069
 C   -4.763840   -0.408278   -0.646466
 C   -4.690693    0.749279    1.611693
 C   -6.230599   -0.820842   -0.534102
 N   -0.598700   -1.034027   -0.568557
 C    0.417212   -1.988717   -1.009441
 C    1.187642   -1.330038   -2.171007
 O    0.714816   -1.257922   -3.290001
 C   -0.092803   -3.369166   -1.478322
 C    0.199252   -4.414486   -0.413295
 O    1.345295   -4.816140   -0.220221
 N   -0.872409   -4.846017    0.285192
 N    2.444692   -0.831631   -1.912468
 C    3.220405   -1.054540   -0.699705
 C    4.453019   -0.118357   -0.738769
 O    5.540274   -0.519023   -1.117941
 C    3.695529   -2.499715   -0.506250
 C    3.981240   -2.721745    0.975303
 O    4.222694   -1.784190    1.722326
 N    3.967912   -4.017677    1.395442
 N    4.252873    1.177674   -0.372945
 C    2.996170    1.753053    0.051490
 C    3.038812    3.241844   -0.316245
 O    4.063733    3.877079   -0.121718
 C    2.764460    1.597327    1.573994
 C    1.274057    1.609102    1.858731
 O    0.540858    0.833465    1.251319
 N    0.797405    2.475358    2.777145
 N    1.932680    3.827645   -0.852996
 C    0.600557    3.293930   -1.076804
 C   -0.453818    4.140907   -0.362343
 C   -1.880753    3.577786   -0.441691
 C   -2.047885    2.361926    0.454522
 O   -2.001058    2.463489    1.677499
 H   -2.258008    1.120583   -1.173461
 H   -2.109157    0.077619    1.555370
 H   -4.140003   -1.290074    1.207024
 H   -4.701454    0.563348   -1.157295
 H   -4.229904   -1.131766   -1.273169
 H   -4.792987    1.707178    1.087540
 H   -5.687847    0.440880    1.941267
 H   -4.082279    0.931190    2.502694
 H   -6.333430   -1.764228    0.015234
 H   -6.671642   -0.964831   -1.525724
 H   -6.828767   -0.063104   -0.016166
 H   -0.218429   -0.137638   -0.280187
 H    1.093137   -2.165068   -0.162987
 H    0.468666   -3.666111   -2.370558
 H   -1.150087   -3.314524   -1.733186
 H   -1.707803   -4.273132    0.271476
 H   -0.715090   -5.470788    1.062460
 H    2.928385   -0.557813   -2.758921
 H    2.591548   -0.790307    0.158005
 H    4.614442   -2.655483   -1.082868
 H    2.948258   -3.221170   -0.858149
 H    4.029866   -4.154103    2.394343
 H    3.414037   -4.690485    0.879592
 H    5.059820    1.790373   -0.372785
 H    2.188425    1.244454   -0.478097
 H    3.316089    2.369111    2.121141
 H    3.161756    0.620235    1.883024
 H   -0.211191    2.590180    2.806430
 H    1.382761    3.183477    3.189369
 H    2.074326    4.811516   -1.049503
 H    0.387747    3.264185   -2.155463
 H    0.561625    2.268404   -0.713117
 H   -0.442356    5.149230   -0.794992
 H   -0.180358    4.240028    0.694608
 H   -2.159477    3.342848   -1.476892
 H   -2.584694    4.337189   -0.080590
