61 
6do4_ligand_ani-2x.xyz
 N   -1.330267    2.541479    0.623001
 C   -2.584377    2.114000   -0.040582
 C   -2.269173    1.772677   -1.498271
 O   -1.482583    2.477072   -2.129253
 N   -2.878715    0.709385   -2.070675
 C   -3.802627   -0.205974   -1.407497
 C   -3.154169   -1.097293   -0.340866
 O   -3.795728   -1.488400    0.622079
 C   -4.359530   -1.046731   -2.573941
 C   -3.255350   -0.996499   -3.635034
 C   -2.689314    0.415790   -3.494924
 N   -1.869305   -1.478439   -0.575696
 C   -1.106668   -2.188821    0.418240
 C   -0.443956   -1.215971    1.410696
 O   -0.635282   -0.005851    1.404284
 C   -0.048115   -3.012201   -0.326514
 O    0.794631   -2.167566   -1.070019
 N    0.406844   -1.784380    2.304675
 C    1.396988   -0.956277    2.949922
 C    2.497808   -0.532184    1.955395
 O    2.625211   -1.026895    0.832861
 C    2.002990   -1.729256    4.113655
 O    2.512082   -2.936819    3.570494
 N    3.360180    0.402934    2.408380
 C    4.509755    0.833736    1.627489
 C    4.159765    1.850311    0.536691
 O    4.341945    3.047115    0.675962
 N    3.665874    1.301754   -0.611360
 C    3.211934    2.148933   -1.679913
 C    1.735200    2.487259   -1.570142
 O    1.185276    2.775213   -2.737336
 O    1.134931    2.497735   -0.512863
 H   -0.624930    2.771878   -0.101064
 H   -0.956260    1.738954    1.153071
 H   -1.467671    3.341442    1.250357
 H   -3.309325    2.929135   -0.023445
 H   -3.008228    1.266182    0.496784
 H   -4.609198    0.328381   -0.894252
 H   -5.270962   -0.572234   -2.951954
 H   -4.617847   -2.061012   -2.256611
 H   -2.480274   -1.736789   -3.407384
 H   -3.627734   -1.200940   -4.641673
 H   -3.236887    1.144292   -4.107329
 H   -1.628798    0.501913   -3.749926
 H   -1.323802   -0.971053   -1.259164
 H   -1.791386   -2.842024    0.969352
 H   -0.564280   -3.667983   -1.034460
 H    0.528478   -3.659026    0.353654
 H    1.425929   -1.762693   -0.447324
 H    0.694877   -2.743678    2.175721
 H    0.898883   -0.056551    3.320195
 H    1.220186   -1.921370    4.860355
 H    2.796822   -1.134932    4.587251
 H    3.069385   -3.362752    4.232169
 H    3.151862    0.902763    3.258923
 H    4.966037   -0.050966    1.175737
 H    5.231124    1.300561    2.299167
 H    3.311532    0.354055   -0.548475
 H    3.770780    3.088004   -1.615638
 H    3.399789    1.694741   -2.656048
 H    0.215845    2.875763   -2.581826
