73 
6do5_ligand_xtb.xyz
 N    0.749926    3.550289    0.082017
 C    2.221308    3.390758    0.155000
 C    2.522076    1.924086   -0.217741
 O    2.359983    1.015064    0.572647
 C    2.695844    3.689980    1.567421
 N    2.962534    1.749577   -1.472571
 C    3.198008    0.429201   -2.030099
 C    1.849069   -0.244163   -2.312782
 O    1.336981   -0.211529   -3.422529
 N    1.303601   -0.807534   -1.234274
 C   -0.004998   -1.427184   -1.200167
 C   -0.902800   -0.742489   -0.165941
 O   -1.987688   -0.264022   -0.459395
 C    0.096080   -2.928002   -0.888045
 C    0.927515   -3.714851   -1.910914
 C    0.329074   -3.643466   -3.313482
 C    1.026526   -5.168448   -1.451814
 N   -0.435934   -0.747707    1.090687
 C   -1.203450   -0.196390    2.196463
 C   -1.417338    1.285712    1.894111
 O   -0.481245    2.076807    1.908357
 C   -0.455120   -0.349893    3.521351
 C   -0.534653   -1.739857    4.171354
 C    0.053793   -2.842262    3.293979
 C   -1.962593   -2.094727    4.581288
 N   -2.667811    1.654143    1.600113
 C   -2.976512    3.004833    1.183632
 C   -2.437370    3.311442   -0.220113
 O   -1.770164    4.303639   -0.447956
 N   -2.776343    2.409930   -1.154758
 C   -2.307509    2.518418   -2.517123
 C   -0.982943    1.787163   -2.699023
 O   -0.990099    0.928461   -3.663606
 O   -0.017111    2.004479   -1.981475
 H    0.355122    3.109711   -0.788252
 H    0.432423    4.523135    0.121868
 H    0.295667    3.033633    0.886089
 H    2.691204    4.064098   -0.567706
 H    2.415572    4.697525    1.861742
 H    2.251619    2.975974    2.256541
 H    3.776405    3.600890    1.629781
 H    2.953614    2.518846   -2.123085
 H    3.777146   -0.159909   -1.314858
 H    3.751547    0.531915   -2.962337
 H    1.790940   -0.678541   -0.354107
 H   -0.469611   -1.292415   -2.180391
 H   -0.916069   -3.336411   -0.860368
 H    0.541120   -3.062454    0.100562
 H    1.937514   -3.290353   -1.940180
 H    0.854116   -4.328946   -3.973127
 H    0.419786   -2.646460   -3.736128
 H   -0.720931   -3.926266   -3.296536
 H    0.040903   -5.627256   -1.431835
 H    1.458332   -5.235671   -0.455684
 H    1.653140   -5.737319   -2.132857
 H    0.508688   -1.031575    1.296610
 H   -2.172791   -0.704701    2.230249
 H    0.588444   -0.073116    3.354965
 H   -0.870526    0.376197    4.223603
 H    0.068293   -1.677404    5.083497
 H    1.075202   -2.604819    3.001985
 H   -0.551728   -2.999081    2.404182
 H    0.076919   -3.776873    3.848526
 H   -1.960120   -2.998231    5.184720
 H   -2.591190   -2.280709    3.713285
 H   -2.406679   -1.295934    5.170286
 H   -3.382768    0.947978    1.520531
 H   -2.512745    3.711820    1.877751
 H   -4.056629    3.150634    1.195585
 H   -3.110876    1.495865   -0.878011
 H   -2.151009    3.581242   -2.731960
 H   -3.045802    2.100837   -3.201586
 H   -0.114780    0.432486   -3.747063
