73 
6do5_ligand_aiqm1.xyz
 N    0.771201    3.693705    0.219718
 C    2.229405    3.560909   -0.057465
 C    2.522986    2.061338   -0.083483
 O    2.049583    1.333320    0.775198
 C    3.045779    4.233941    1.035042
 N    3.338808    1.617756   -1.057527
 C    3.446913    0.179522   -1.280823
 C    2.095576   -0.349876   -1.769592
 O    1.658447    0.032560   -2.850848
 N    1.440746   -1.155798   -0.927453
 C    0.044628   -1.543157   -1.096581
 C   -0.897943   -0.842799   -0.109345
 O   -2.080831   -0.677449   -0.392568
 C   -0.135357   -3.053483   -0.938196
 C    0.624543   -3.888039   -1.970112
 C    0.225332   -3.541243   -3.402403
 C    0.382359   -5.370201   -1.697373
 N   -0.402444   -0.525547    1.112193
 C   -1.288653   -0.093174    2.180385
 C   -1.589620    1.390051    1.972009
 O   -0.698956    2.237031    1.992714
 C   -0.676530   -0.315306    3.558692
 C   -0.523087   -1.778826    4.000841
 C    0.622594   -2.515386    3.305278
 C   -1.827334   -2.560437    3.856649
 N   -2.864467    1.736090    1.706197
 C   -3.153050    3.064008    1.207167
 C   -2.615364    3.272428   -0.212880
 O   -2.021964    4.293008   -0.530232
 N   -2.832751    2.252091   -1.072114
 C   -2.347579    2.320011   -2.432974
 C   -0.924161    1.819838   -2.526971
 O   -0.708003    0.986834   -3.511366
 O   -0.059049    2.169736   -1.733890
 H    0.238643    3.298847   -0.587149
 H    0.475728    4.656463    0.361775
 H    0.509276    3.131637    1.050464
 H    2.433966    4.011179   -1.023423
 H    2.811446    5.293860    1.104306
 H    2.856772    3.761565    1.997436
 H    4.105958    4.138203    0.812722
 H    3.527605    2.223986   -1.837704
 H    3.761175   -0.299255   -0.357141
 H    4.189127    0.017220   -2.054054
 H    1.926222   -1.463146   -0.100814
 H   -0.263296   -1.252046   -2.098540
 H   -1.201799   -3.275176   -1.014230
 H    0.187700   -3.343273    0.070279
 H    1.696875   -3.685854   -1.849733
 H    0.711445   -4.223096   -4.099365
 H    0.506921   -2.525659   -3.689720
 H   -0.854202   -3.649671   -3.534989
 H   -0.672945   -5.612427   -1.840035
 H    0.657750   -5.640938   -0.677002
 H    0.962266   -5.988642   -2.380615
 H    0.578486   -0.320325    1.210119
 H   -2.211619   -0.658631    2.078175
 H    0.287038    0.197608    3.594650
 H   -1.329740    0.184817    4.278832
 H   -0.276962   -1.729237    5.064440
 H    1.541161   -1.923798    3.305593
 H    0.367184   -2.756754    2.270236
 H    0.826060   -3.455342    3.815551
 H   -1.740560   -3.530662    4.341859
 H   -2.070353   -2.742620    2.805806
 H   -2.667051   -2.032001    4.311125
 H   -3.575212    1.024200    1.675683
 H   -2.676963    3.806283    1.839889
 H   -4.228125    3.221892    1.215658
 H   -3.109699    1.348734   -0.714387
 H   -2.361566    3.362510   -2.745725
 H   -2.985698    1.738218   -3.091383
 H    0.215326    0.647677   -3.435574
