73 
6do5_ligand_ani-2x.xyz
 N    0.705137    3.264955    0.407536
 C    2.188846    3.137881    0.498995
 C    2.559241    1.669393    0.236004
 O    2.328634    0.785878    1.062316
 C    2.687972    3.581965    1.870944
 N    3.160696    1.409912   -0.955448
 C    3.391646    0.042836   -1.405821
 C    2.084390   -0.577544   -1.899466
 O    1.793195   -0.588309   -3.100840
 N    1.281393   -1.040222   -0.920065
 C   -0.114790   -1.415292   -1.079715
 C   -1.055640   -0.724616   -0.081754
 O   -2.261831   -0.652362   -0.334780
 C   -0.339509   -2.937206   -0.958239
 C    0.413711   -3.806973   -1.973330
 C    0.044294   -3.468241   -3.419598
 C    0.135984   -5.282500   -1.684361
 N   -0.530693   -0.299788    1.094867
 C   -1.367429    0.107046    2.219219
 C   -1.905534    1.520289    1.936597
 O   -1.287528    2.524594    2.283335
 C   -0.594321    0.100013    3.537708
 C   -0.107439   -1.266330    4.056554
 C    1.072149   -1.847801    3.269359
 C   -1.243275   -2.285210    4.155481
 N   -3.076116    1.582547    1.247860
 C   -3.447621    2.843196    0.626903
 C   -2.599262    3.159030   -0.608796
 O   -1.870192    4.139946   -0.681075
 N   -2.724141    2.270771   -1.638875
 C   -1.912863    2.412105   -2.826770
 C   -0.620220    1.615325   -2.720787
 O   -0.348684    0.907743   -3.802295
 O    0.086016    1.621012   -1.725268
 H    0.342678    2.779114   -0.433899
 H    0.404781    4.248354    0.330226
 H    0.243824    2.860432    1.243526
 H    2.634635    3.755872   -0.287014
 H    2.397627    4.618541    2.070028
 H    2.263242    2.935759    2.645734
 H    3.777429    3.513028    1.928741
 H    3.090914    2.114003   -1.675577
 H    3.807455   -0.533272   -0.577030
 H    4.103813    0.059177   -2.230321
 H    1.639620   -0.973912    0.023671
 H   -0.438924   -1.087444   -2.071272
 H   -1.418516   -3.116444   -1.054316
 H   -0.063191   -3.253675    0.059200
 H    1.490901   -3.633278   -1.846813
 H    0.556065   -4.147350   -4.110711
 H    0.331332   -2.445183   -3.686034
 H   -1.035932   -3.578541   -3.584392
 H   -0.933742   -5.503591   -1.792383
 H    0.434171   -5.554106   -0.665394
 H    0.682797   -5.930086   -2.378803
 H    0.457278   -0.079718    1.178150
 H   -2.223244   -0.575751    2.263526
 H    0.259853    0.786095    3.448733
 H   -1.252071    0.540281    4.296305
 H    0.254656   -1.069884    5.075486
 H    1.820569   -1.082579    3.034538
 H    0.742577   -2.298848    2.327471
 H    1.563396   -2.638412    3.847676
 H   -0.898478   -3.207527    4.636110
 H   -1.615936   -2.557234    3.159643
 H   -2.087381   -1.895167    4.736517
 H   -3.325546    0.734008    0.750763
 H   -3.302634    3.648834    1.346656
 H   -4.506377    2.794777    0.355541
 H   -3.072310    1.340274   -1.434211
 H   -1.661008    3.471817   -2.925330
 H   -2.461244    2.088987   -3.714730
 H    0.470802    0.368407   -3.635506
