53 
6dq5_ligand_aiqm1.xyz
 C  -28.408104   23.562049    5.975339
 C  -28.695756   21.900053    4.266008
 C  -28.336969   20.239176    2.509223
 C  -26.540079   24.713491    3.993428
 C  -24.963890   21.645483    1.947627
 C  -24.870156   23.097013   -0.083090
 C  -24.907140   22.089499   -2.250021
 C  -23.018892   18.826344    7.782345
 C  -23.001734   19.211798    6.324144
 C  -24.304679   18.744168    5.637656
 C  -24.662666   20.335402    3.770361
 C  -25.010153   21.401774    4.601784
 C  -25.362280   22.601036    3.975037
 C  -25.854147   23.697325    6.130270
 C  -27.141018   23.078724    6.684016
 C  -28.713555   21.480323    2.835721
 C  -27.943789   24.184882    3.606353
 C  -24.940159   21.811469    0.460774
 C  -24.849259   23.235143   -1.463908
 C  -24.984598   20.854757   -1.612430
 N  -24.343232   19.101271    4.245923
 N  -25.737271   23.713365    4.676931
 N  -28.449237   23.211745    4.560276
 N  -25.336854   22.729176    2.634232
 N  -24.999190   20.703135   -0.285965
 N  -24.625523   20.457141    2.428981
 O  -23.354449   19.805897    8.662546
 O  -22.802540   17.716512    8.179747
 O  -28.886656   21.078955    5.156312
 H  -28.512673   24.645378    6.052147
 H  -29.277576   23.103759    6.445788
 H  -28.009787   19.554344    3.283642
 H  -28.330189   19.900358    1.482963
 H  -26.629332   25.568331    4.665061
 H  -26.017219   25.041064    3.094911
 H  -24.837154   23.951463    0.578399
 H  -24.895401   22.144323   -3.330485
 H  -22.160582   18.706973    5.851657
 H  -22.878378   20.288587    6.178313
 H  -25.165910   19.171591    6.156825
 H  -24.379530   17.662201    5.719150
 H  -25.068762   21.284143    5.669157
 H  -24.975541   23.194764    6.540234
 H  -25.786735   24.741081    6.448978
 H  -27.099913   21.993381    6.603784
 H  -27.215696   23.319295    7.746718
 H  -29.039138   22.169969    2.065404
 H  -27.863567   23.708029    2.637932
 H  -28.638925   25.026647    3.524186
 H  -24.791437   24.215932   -1.918104
 H  -25.037405   19.941500   -2.193161
 H  -24.113295   18.420041    3.542928
 H  -23.497980   20.632342    8.192553
