62 
6dvm_ligand_ani-2x.xyz
 C   37.702535  -54.501531  -19.727845
 C   38.517065  -54.453629  -18.483708
 C   37.858034  -54.614960  -17.266700
 C   38.578490  -54.591091  -16.079973
 C   39.960812  -54.396723  -16.086544
 C   40.736651  -54.387499  -14.783348
 C   44.231864  -60.485222   -8.414542
 C   43.730521  -59.696983   -9.597542
 C   43.371137  -60.325593  -10.787807
 C   42.906768  -59.615971  -11.891767
 C   42.791785  -58.230031  -11.812003
 C   42.048318  -57.826374  -14.154360
 C   41.502755  -56.734052  -15.082299
 C   39.895236  -54.228369  -18.498054
 C   40.610601  -54.201146  -17.309214
 C   43.163048  -55.018283  -14.898382
 C   43.641496  -53.686654  -14.411817
 C   44.697604  -53.097200  -15.106777
 C   45.218961  -51.873797  -14.723292
 C   44.719080  -51.198576  -13.590406
 C   46.296900  -49.370339  -13.960978
 C   44.703470  -49.322007  -12.027054
 C   43.682399  -51.822454  -12.865172
 C   43.158296  -53.039018  -13.274062
 C   43.147381  -57.580439  -10.627322
 C   43.610510  -58.305392   -9.539186
 N   42.323820  -57.435759  -12.878295
 N   41.832469  -55.357090  -14.723173
 N   38.393464  -54.703721  -20.895522
 N   45.229200  -49.979324  -13.201571
 O   42.161046  -58.964493  -14.576419
 O   36.486283  -54.348037  -19.755928
 O   37.595519  -54.944697  -22.009904
 O   43.939090  -55.801424  -15.428029
 H   36.781804  -54.758206  -17.272762
 H   38.059984  -54.726877  -15.132629
 H   41.153462  -53.391449  -14.625753
 H   40.041031  -54.594580  -13.960145
 H   45.242871  -60.173156   -8.127243
 H   43.587677  -60.343078   -7.538817
 H   44.264245  -61.556769   -8.632839
 H   43.456244  -61.408867  -10.865410
 H   42.639388  -60.125254  -12.808735
 H   40.411655  -56.827535  -15.088093
 H   41.853831  -56.981760  -16.088764
 H   40.406037  -54.045649  -19.439885
 H   41.683104  -54.019838  -17.345041
 H   45.107455  -53.617126  -15.969151
 H   46.027562  -51.445861  -15.305006
 H   46.563525  -48.410030  -13.510602
 H   47.195995  -50.001586  -13.975234
 H   45.998123  -49.186912  -15.001951
 H   43.631804  -49.104186  -12.131205
 H   44.835757  -49.936362  -11.125945
 H   45.228631  -48.375196  -11.872472
 H   43.264773  -51.349034  -11.986255
 H   42.360570  -53.480934  -12.680553
 H   43.066612  -56.497349  -10.557743
 H   43.883566  -57.781411   -8.625156
 H   42.188676  -56.459256  -12.667074
 H   39.167012  -55.357797  -20.888219
 H   36.696998  -54.774066  -21.656323
