62 
6dvn_ligand_dft.xyz
 C    1.775169    0.837133    0.853054
 C    3.233142    2.589719    0.017480
 C    4.808370    4.186883   -0.939909
 C    5.134775    3.298543    1.365320
 C    2.815480    1.725841    1.051127
 C    1.106907    0.756285   -0.371674
 C    0.180537   -0.358730   -0.697785
 C   -6.839135    0.906598    0.080927
 C   -5.399710    0.644993    0.350586
 C   -4.454775    0.518836   -0.670383
 C   -3.125007    0.259381   -0.363906
 C   -2.718676    0.125884    0.965126
 C   -1.261582   -0.116583    1.316899
 C    2.536945    2.523753   -1.209717
 C    1.513195    1.613441   -1.396122
 C   -1.056736   -2.270184    0.077606
 C    0.078645   -3.289147   -0.100962
 C    2.498813   -3.605949    0.313013
 C    3.539110   -2.539151    0.042880
 C    3.400478   -1.695919   -1.064439
 C    4.310389   -0.670225   -1.286948
 C    5.370774   -0.470017   -0.404951
 C    5.517502   -1.304064    0.698179
 C    4.602933   -2.332713    0.919760
 C   -3.667028    0.259090    1.980614
 C   -4.995449    0.526256    1.680541
 N   -7.292643    0.569780   -1.168206
 N   -0.550431   -0.929037    0.341568
 N    4.291368    3.453309    0.196856
 N    1.213840   -2.984779    0.586215
 O   -7.608493    1.416211    0.889212
 O   -8.670690    0.665517   -1.330813
 O    0.155899   -0.854027   -1.816460
 O   -0.068677   -4.293881   -0.771523
 H    1.514500    0.160512    1.662674
 H    4.040059    4.841022   -1.366736
 H    5.632129    4.822527   -0.611997
 H    5.178743    3.523857   -1.736566
 H    5.560248    2.286696    1.438199
 H    5.956045    4.014605    1.312673
 H    4.577244    3.504916    2.286353
 H    3.327859    1.717788    2.004586
 H   -4.748980    0.652332   -1.707365
 H   -2.401278    0.156335   -1.167436
 H   -1.196733   -0.593738    2.302735
 H   -0.750471    0.846983    1.394696
 H    2.819179    3.163692   -2.036737
 H    1.030157    1.534848   -2.365030
 H   -1.672631   -2.575860    0.929356
 H   -1.670958   -2.320236   -0.824608
 H    2.808668   -4.235222    1.155971
 H    2.354524   -4.261856   -0.550815
 H    2.555618   -1.824620   -1.736265
 H    4.179436   -0.012772   -2.140591
 H    6.078449    0.336205   -0.578598
 H    6.341704   -1.155944    1.390369
 H    4.716511   -2.979655    1.786745
 H   -3.362531    0.153308    3.019038
 H   -5.735487    0.639270    2.465830
 H   -6.953058   -0.282361   -1.595181
 H    1.238491   -2.077486    1.027269
 H   -8.947077    1.009660   -0.454823
