56 
6dxg_ligand_dft.xyz
 C    3.054658   -0.188281   -0.801616
 C    4.124076   -1.015658   -0.512874
 C    3.944501   -2.303669    0.033049
 C    2.669076   -2.806752    0.267032
 C    1.577435   -1.990356   -0.028248
 C   -0.349784   -1.154079   -0.318202
 C   -4.537590    0.646343    2.823873
 C   -4.969973    1.198579    1.471130
 C   -6.000657   -1.340593   -0.733004
 C   -7.133676   -2.121936   -1.318290
 C   -4.624026   -1.465337   -0.980263
 C   -4.027745   -0.488764   -0.197041
 C   -2.607573   -0.120847   -0.041008
 C    1.781645   -0.697209   -0.539914
 C    0.201709    1.154288   -1.228579
 C    0.277854    2.249928   -0.130771
 C    1.667259    2.823847    0.006725
 C    2.174484    3.688332   -0.966111
 C    3.479300    4.160011   -0.875573
 C    4.292331    3.771107    0.188382
 C    3.789298    2.918860    1.165629
 C    2.480167    2.452792    1.075565
 C    5.185181   -3.095610    0.320164
 N   -5.037630    0.157503    0.448666
 N   -6.229139   -0.361265    0.143518
 N   -1.742810   -1.102751   -0.464924
 N    0.224244   -2.249790    0.096500
 N    0.514306   -0.170706   -0.729354
 N    5.047649   -4.126658    1.216157
 O   -2.239633    0.959754    0.401507
 O   -0.621572    3.287263   -0.457085
 O    6.251755   -2.854405   -0.220030
 H    3.206750    0.808031   -1.202016
 H    5.139146   -0.684588   -0.701967
 H    2.502499   -3.814811    0.633071
 H   -5.216182   -0.147869    3.148507
 H   -4.553595    1.444988    3.571390
 H   -3.519858    0.249110    2.776065
 H   -4.280947    1.969088    1.126848
 H   -5.978329    1.612005    1.518468
 H   -7.222103   -1.947337   -2.395784
 H   -6.993541   -3.196762   -1.165420
 H   -8.071130   -1.823110   -0.844110
 H   -4.141511   -2.140700   -1.673264
 H    0.886639    1.378548   -2.051770
 H   -0.808220    1.129299   -1.638689
 H   -0.005872    1.774229    0.814680
 H    1.534389    3.998370   -1.787315
 H    3.863508    4.834963   -1.634859
 H    5.312521    4.137030    0.256377
 H    4.415472    2.613295    1.998436
 H    2.093232    1.777210    1.834174
 H   -2.130653   -2.034345   -0.535949
 H    4.310982   -4.102668    1.903674
 H    5.910970   -4.568707    1.496638
 H   -1.502610    2.919525   -0.296592
