18 
6dzq_ligand_aiqm1.xyz
 O  -17.406775   15.771959   14.749536
 C  -18.034550   16.629756   15.565871
 O  -17.686754   16.807644   16.695068
 C  -19.211920   17.362424   14.964003
 O  -19.771090   18.228759   15.848956
 C  -21.027302   18.743241   15.580620
 C  -21.857377   18.932101   16.600289
 C  -21.288140   19.106218   14.149105
 C  -20.795777   18.041794   13.206323
 O  -21.205019   17.857423   12.075673
 C  -19.675691   17.229079   13.703579
 O  -19.163920   16.345739   12.804150
 H  -17.835294   15.752862   13.881567
 H  -22.817483   19.397941   16.431548
 H  -21.563682   18.664410   17.605583
 H  -20.733258   20.018233   13.904138
 H  -22.340445   19.307850   13.972468
 H  -19.707323   16.453367   12.007023
