22 
6e0q_ligand_xtb.xyz
 O  -21.515608   18.423195   18.180195
 C  -20.381154   18.235682   17.846564
 O  -19.438849   17.932599   18.756084
 C  -19.923637   18.317050   16.419775
 C  -18.889380   17.603286   15.970145
 C  -18.418723   17.655479   14.545762
 O  -17.181362   17.031288   14.352903
 C  -19.463919   16.939662   13.690598
 O  -19.236011   15.927681   13.067730
 C  -20.778624   17.604128   13.565075
 O  -21.509544   17.125548   12.531866
 C  -21.258365   18.631172   14.298874
 C  -20.758997   19.167200   15.545582
 C  -21.143512   20.379838   15.969903
 H  -18.557565   17.836468   18.372855
 H  -18.346327   16.899024   16.588224
 H  -18.397456   18.704939   14.203574
 H  -16.494675   17.514678   14.824036
 H  -21.012082   16.379681   12.147418
 H  -22.189972   19.059030   13.952942
 H  -21.773196   21.007594   15.364159
 H  -20.824040   20.780280   16.915336
