61 
6e3g_ligand_aiqm1.xyz
 N   -6.533812    1.245035    0.626974
 N   -1.176652   -1.409237    0.053265
 C    7.112568   -1.370126   -0.106310
 C    0.996976   -2.403748   -0.164827
 C    0.871455   -0.035502    0.238245
 C    8.747875    0.862886    0.248734
 C    2.379460   -2.337835   -0.182266
 C   -5.409889    0.997161    2.738178
 C    0.228329   -1.254725    0.045513
 C    7.363757    0.991642    0.294821
 C   -6.423054    1.512339    1.914774
 C   -5.783416    0.149273   -1.400952
 C   -4.461125   -0.286252   -2.013443
 C   -3.559976   -1.055241    0.154876
 C    7.497723    3.324845    0.695573
 C    5.050129    0.088393    0.180226
 C    8.500383   -1.510427   -0.154460
 C    9.307767   -0.397169    0.022701
 C   -4.483954    0.162126    2.152990
 C    2.268607    0.032572    0.221675
 C   -4.579487   -0.143703    0.788964
 C    6.535596   -0.127099    0.117085
 C    3.028834   -1.116258    0.012013
 C   -5.617965    0.431059    0.066894
 C   -2.127941   -0.457597    0.205176
 C   -3.575775   -2.614649   -1.702971
 C   -3.967608   -2.959735   -3.123021
 C   -8.341590    2.857417    1.660360
 N   -3.896856   -1.383070   -1.231723
 O   -1.926327    0.734539    0.344438
 O   -2.978391   -3.424702   -0.998388
 O    6.703721    2.169383    0.508350
 O    4.392091   -1.149047   -0.021663
 O   -7.322961    2.324483    2.503277
 H   -1.522333   -2.340404   -0.133723
 H    6.460021   -2.223296   -0.241120
 H    0.509082   -3.359605   -0.318122
 H    0.297639    0.864235    0.399557
 H    9.391105    1.720359    0.385077
 H    2.973612   -3.226095   -0.345018
 H   -5.376203    1.270736    3.783404
 H   -6.537782   -0.634969   -1.530279
 H   -6.159599    1.044194   -1.891720
 H   -4.589909   -0.607207   -3.043216
 H   -3.745580    0.539466   -2.001949
 H   -3.536839   -2.000813    0.698408
 H    8.141762    3.226369    1.572697
 H    6.801499    4.144514    0.849230
 H    8.112718    3.530976   -0.183758
 H    4.778476    0.511033    1.152348
 H    4.748141    0.810461   -0.584716
 H    8.941460   -2.482779   -0.328789
 H   10.384676   -0.496675   -0.012851
 H   -3.669719   -0.249824    2.736586
 H    2.745101    0.989711    0.373748
 H   -5.024316   -2.768511   -3.307407
 H   -3.382986   -2.378572   -3.837547
 H   -3.756309   -4.013576   -3.272813
 H   -8.951127    3.484374    2.304085
 H   -8.943899    2.057823    1.228255
 H   -7.907180    3.449145    0.854756
