61 
6e3g_ligand_xtb.xyz
 N   -6.556414    1.198275    0.587413
 N   -1.193091   -1.375460    0.147649
 C    7.062455   -1.359137   -0.238835
 C    0.967557   -2.342968   -0.185025
 C    0.835622   -0.007724    0.350275
 C    8.766793    0.783667    0.183525
 C    2.339886   -2.256996   -0.231090
 C   -5.443698    1.052105    2.697912
 C    0.197986   -1.216489    0.106543
 C    7.395077    0.966272    0.283383
 C   -6.467527    1.522500    1.865053
 C   -5.775523    0.066159   -1.396033
 C   -4.398533   -0.287580   -1.951750
 C   -3.563791   -1.057175    0.206606
 C    7.590367    3.282617    0.811429
 C    5.053421    0.120970    0.187454
 C    8.433630   -1.537853   -0.337807
 C    9.278831   -0.467081   -0.126465
 C   -4.504044    0.212070    2.149333
 C    2.216886    0.079471    0.304074
 C   -4.594865   -0.142189    0.801722
 C    6.533952   -0.120570    0.069015
 C    2.985168   -1.042189    0.013893
 C   -5.641041    0.389874    0.063103
 C   -2.145427   -0.430836    0.296292
 C   -3.493676   -2.598525   -1.648936
 C   -3.891602   -2.951434   -3.061508
 C   -8.398511    2.798109    1.516175
 N   -3.840786   -1.380003   -1.187317
 O   -1.967854    0.758961    0.446016
 O   -2.880115   -3.388043   -0.940810
 O    6.784118    2.152004    0.582449
 O    4.343668   -1.070677   -0.056721
 O   -7.392505    2.337822    2.397208
 H   -1.521000   -2.322288   -0.042747
 H    6.387205   -2.183721   -0.400324
 H    0.476996   -3.286440   -0.376616
 H    0.250775    0.868430    0.575108
 H    9.447053    1.605061    0.344402
 H    2.942214   -3.122861   -0.455800
 H   -5.414989    1.357791    3.730026
 H   -6.456771   -0.780976   -1.517511
 H   -6.204163    0.920392   -1.919416
 H   -4.456857   -0.550593   -3.005712
 H   -3.733733    0.577551   -1.841718
 H   -3.552848   -2.004392    0.761794
 H    8.256177    3.135444    1.667771
 H    6.899887    4.096133    1.028876
 H    8.184090    3.539208   -0.071743
 H    4.835648    0.502890    1.196404
 H    4.762202    0.901020   -0.532351
 H    8.835342   -2.510042   -0.578790
 H   10.348683   -0.594256   -0.200754
 H   -3.693912   -0.172364    2.751170
 H    2.678137    1.034388    0.498818
 H   -4.953405   -2.785872   -3.225243
 H   -3.319861   -2.361484   -3.775309
 H   -3.663466   -4.002198   -3.219668
 H   -9.048784    3.435755    2.111188
 H   -8.961943    1.959036    1.101901
 H   -7.959089    3.364544    0.692219
