31 
6e3p_ligand_ani-2x.xyz
 O  -19.054730   16.143898  138.998447
 C  -18.850911   16.192512  137.653041
 O  -18.156760   15.399262  137.071948
 C  -19.582769   17.321827  137.031495
 N  -20.315855   18.139448  137.876425
 C  -19.555990   17.589846  135.704242
 O  -18.876451   16.906585  134.790424
 C  -20.325788   18.724920  135.150663
 O  -20.248191   18.910403  133.928525
 C  -21.088145   19.485175  136.089354
 C  -21.072472   19.182259  137.417673
 C  -21.829850   19.955296  138.430875
 C  -23.114262   20.403699  138.131349
 C  -21.269825   20.269924  139.673888
 C  -21.984878   21.030320  140.592063
 C  -23.270024   21.465877  140.292307
 C  -23.845118   21.140897  139.061890
 C  -25.210744   21.607092  138.787609
 N  -26.022269   21.200175  137.790984
 N  -27.188416   21.855356  137.881311
 N  -27.081124   22.633886  138.895584
 N  -25.874679   22.505910  139.485330
 H  -18.541645   15.380059  139.310404
 H  -20.370296   17.870514  138.849889
 H  -19.095910   17.388777  133.959019
 H  -21.657464   20.332542  135.724793
 H  -23.537873   20.159275  137.159222
 H  -20.259009   19.940603  139.903671
 H  -21.538962   21.276900  141.551904
 H  -23.842804   22.060862  140.998008
 H  -25.904785   20.494903  137.079663
