35 
6e4c_ligand_xtb.xyz
 O  -17.310304   16.816025   15.302569
 C  -18.446109   17.015979   15.953459
 O  -18.499626   17.156321   17.141092
 C  -19.706336   17.066101   15.107037
 N  -20.769726   17.430247   15.705694
 C  -19.740093   16.660934   13.660046
 O  -18.525890   16.691504   12.962138
 C  -20.813503   17.460201   12.902132
 O  -20.610727   17.732803   11.735474
 C  -21.988617   17.760364   13.678514
 C  -21.957595   17.637229   15.038396
 C  -23.093508   17.876458   15.926509
 C  -24.418638   17.545406   15.599221
 C  -24.805903   16.849130   14.330702
 C  -25.419249   17.840115   16.515440
 C  -22.812754   18.445652   17.176303
 C  -23.816061   18.739736   18.068401
 C  -25.141398   18.447266   17.736612
 C  -26.191560   18.770748   18.683156
 N  -25.985920   19.354574   19.815339
 O  -27.203575   19.497247   20.432910
 C  -28.181638   18.983959   19.651031
 O  -29.347386   18.950619   19.895609
 N  -27.531329   18.513529   18.517339
 H  -17.436523   16.732138   14.334036
 H  -20.141724   15.622632   13.656598
 H  -18.729111   17.074267   12.086004
 H  -22.821363   18.211206   13.164949
 H  -25.062652   17.575058   13.559371
 H  -23.999818   16.224288   13.955462
 H  -25.681851   16.226321   14.499139
 H  -26.435865   17.581396   16.256280
 H  -21.783090   18.654357   17.418863
 H  -23.606093   19.189495   19.024463
 H  -27.994768   18.069796   17.745010
