41 
6e6m_ligand_ani-2x.xyz
 O    0.893918   -1.558288   -2.149090
 O    1.146595    1.432462    1.554829
 C   -1.490640   -0.241259    0.272774
 C   -0.453493    0.429684   -0.671100
 C   -2.839558    0.459269    0.104442
 C   -2.750628    1.933980    0.503225
 C   -0.598099    1.932916   -0.701839
 C   -1.598271    2.638550   -0.167914
 C    0.965834   -0.026224   -0.350635
 C   -1.549557   -1.746273    0.057690
 C   -1.614828    4.144574   -0.131722
 C    1.579769   -1.050642   -1.080048
 C    1.670218    0.461314    0.755043
 C   -2.398235   -2.291411   -1.065236
 C   -0.839313   -2.570286    0.829597
 C    2.835943   -1.545731   -0.733682
 C    2.925877   -0.024755    1.113487
 C    3.521745   -1.034615    0.364610
 C    4.881455   -1.563510    0.745226
 H    1.418973   -2.261950   -2.549139
 H    0.360281    1.798352    1.115371
 H   -1.149770   -0.085705    1.308050
 H   -0.675633    0.088412   -1.685606
 H   -3.159348    0.384048   -0.944401
 H   -3.603353   -0.047113    0.707116
 H   -2.628752    2.022598    1.595085
 H   -3.688491    2.454118    0.268581
 H    0.219148    2.436477   -1.219312
 H   -0.773449    4.574169   -0.685490
 H   -1.565867    4.513568    0.900875
 H   -2.541587    4.535272   -0.568180
 H   -2.304954   -3.379791   -1.120629
 H   -3.458045   -2.050807   -0.921129
 H   -2.100817   -1.881464   -2.039043
 H   -0.855569   -3.647782    0.676914
 H   -0.198678   -2.189305    1.624987
 H    3.278722   -2.342728   -1.331143
 H    3.421473    0.396529    1.983667
 H    4.874383   -1.973441    1.761993
 H    5.207626   -2.355676    0.065207
 H    5.635075   -0.767636    0.722370
