19 
6e6v_ligand_aiqm1.xyz
 O  -17.546897   16.983925   16.657026
 C  -17.934164   16.821940   15.537711
 O  -17.309605   16.007208   14.679219
 C  -19.169900   17.550538   14.996453
 N  -19.913022   18.140837   15.855273
 C  -21.075918   18.833730   15.424588
 C  -21.776076   19.548976   16.534062
 C  -21.530135   18.808009   14.147544
 C  -20.804978   18.045065   13.134108
 O  -21.240440   17.667716   12.062596
 C  -19.368009   17.715469   13.493248
 O  -18.945411   16.607821   12.739243
 H  -17.782245   15.976916   13.831092
 H  -21.106771   20.293146   16.962822
 H  -22.684244   20.031671   16.178827
 H  -22.016721   18.842884   17.325957
 H  -22.478732   19.258654   13.880496
 H  -18.761993   18.586095   13.229621
 H  -19.613241   16.491000   12.048315
