19 
6e6v_ligand_dft.xyz
 O    2.344618   -1.988168    0.017685
 C    2.030253   -0.833082   -0.053380
 O    2.912116    0.140736   -0.276392
 C    0.567166   -0.395742    0.095488
 N   -0.313218   -1.307952   -0.060579
 C   -1.686136   -0.979384   -0.001867
 C   -2.572581   -2.181871   -0.025068
 C   -2.154957    0.290767   -0.015334
 C   -1.202590    1.386091   -0.008949
 O   -1.412404    2.543414   -0.328482
 C    0.185176    1.012160    0.501151
 O    1.108831    2.008253    0.159216
 H    2.474185    1.016611   -0.283207
 H   -2.341715   -2.821392    0.833934
 H   -3.630199   -1.911245    0.000523
 H   -2.365110   -2.773806   -0.922510
 H   -3.210089    0.511031   -0.132915
 H    0.070790    0.966746    1.602951
 H    0.571386    2.740210   -0.203178
