64 
6eb1_ligand_xtb.xyz
 C   -1.026201    0.432035    0.924179
 C    0.915215   -1.994211    1.449582
 C    2.369999   -3.385684    0.126762
 C    3.941821   -4.732171   -1.009331
 C    2.494742   -2.366103   -0.819716
 C    1.827107   -1.171003   -0.607090
 C    1.590401    3.694718    0.368991
 C    2.143024    5.779321   -0.699510
 C    3.798837    4.626093    0.594217
 C   -4.292301   -1.175502   -1.881870
 C   -3.060137   -1.615414   -1.087379
 C   -3.300269   -3.003768   -0.483519
 C   -1.824014   -1.622386   -1.995642
 O   -2.943024   -0.613194   -0.075346
 C   -1.941385   -0.772734    0.904007
 C   -2.584410   -1.014288    2.267327
 O   -1.715733   -0.804652    3.267124
 O   -3.710327   -1.381954    2.455762
 C    0.329609    0.318427    0.674925
 C    1.024335   -0.971217    0.509068
 C    1.579953   -3.186774    1.258080
 O    2.975926   -4.600876    0.014329
 C    3.492237   -4.073915   -2.308228
 C    3.327580   -2.578536   -2.055311
 N    1.118486    1.392482    0.503495
 C    0.645865    2.602770    0.656249
 C    1.228511    4.777875   -0.428122
 C    3.425712    5.711632   -0.181587
 C    2.890341    3.619715    0.862013
 C   -0.697312    2.846751    1.063208
 C   -1.187683    4.122927    1.405117
 C   -2.504077    4.296037    1.730900
 C   -3.383233    3.202774    1.722935
 C   -2.928344    1.945162    1.441066
 C   -1.567555    1.725432    1.136089
 H    0.333481   -1.838304    2.345714
 H    4.086685   -5.808482   -1.132028
 H    4.888626   -4.284545   -0.674748
 H    1.921497   -0.374231   -1.329761
 H    1.854471    6.614936   -1.320740
 H    4.802510    4.564561    0.989076
 H   -4.148641   -0.161613   -2.244843
 H   -4.459672   -1.838724   -2.725378
 H   -5.164499   -1.188467   -1.234794
 H   -3.670041   -3.679465   -1.249737
 H   -4.039061   -2.929522    0.310937
 H   -2.386278   -3.427396   -0.071289
 H   -0.930679   -1.928200   -1.453921
 H   -1.655786   -0.625054   -2.395632
 H   -1.977651   -2.313019   -2.820353
 H   -1.331357   -1.662154    0.705677
 H   -2.143435   -0.973945    4.122381
 H    1.509442   -3.986821    1.978294
 H    2.536898   -4.506324   -2.613472
 H    4.226421   -4.263210   -3.091287
 H    2.853615   -2.090842   -2.909293
 H    4.310012   -2.115949   -1.916934
 H    0.237550    4.820635   -0.857047
 H    4.135318    6.498840   -0.390353
 H    3.169984    2.764989    1.458529
 H   -0.505427    4.959640    1.422067
 H   -2.875218    5.275845    1.993991
 H   -4.425630    3.359922    1.958801
 H   -3.606731    1.107829    1.442773
