64 
6eb1_ligand_ani-2x.xyz
 C   -0.994529    0.403054    1.017682
 C    0.978840   -1.972055    1.647733
 C    2.386011   -3.453159    0.368813
 C    4.019708   -4.828257   -0.643714
 C    2.501297   -2.504293   -0.653592
 C    1.848313   -1.283264   -0.485385
 C    1.464538    3.708188    0.178495
 C    1.716982    5.850260   -0.922641
 C    3.663988    4.662155   -0.151391
 C   -4.125268   -0.756703   -2.177175
 C   -2.988833   -1.351097   -1.346974
 C   -3.374856   -2.755858   -0.874309
 C   -1.697575   -1.367075   -2.173028
 O   -2.862462   -0.441992   -0.237948
 C   -1.945376   -0.773217    0.783838
 C   -2.728730   -1.214183    2.028847
 O   -1.900466   -1.508228    3.048297
 O   -3.925182   -1.328636    2.124154
 C    0.367739    0.305230    0.744235
 C    1.072345   -1.011623    0.637219
 C    1.628579   -3.187193    1.511209
 O    2.967512   -4.685566    0.302773
 C    3.603745   -4.298443   -2.003493
 C    3.337933   -2.801100   -1.881460
 N    1.139387    1.375440    0.486730
 C    0.637199    2.583017    0.665378
 C    0.905487    4.820802   -0.458222
 C    3.097318    5.779502   -0.759645
 C    2.854919    3.625138    0.295821
 C   -0.626614    2.785003    1.324128
 C   -1.040096    4.025859    1.885316
 C   -2.299162    4.184700    2.400835
 C   -3.206123    3.109089    2.383389
 C   -2.818843    1.888526    1.897773
 C   -1.497383    1.679395    1.410971
 H    0.387890   -1.771398    2.536127
 H    4.246905   -5.897004   -0.663554
 H    4.907100   -4.286822   -0.280806
 H    1.940196   -0.510526   -1.247764
 H    1.266855    6.713719   -1.404011
 H    4.742660    4.591853   -0.034580
 H   -3.867294    0.260097   -2.487896
 H   -4.315183   -1.359942   -3.072006
 H   -5.043082   -0.712571   -1.582705
 H   -3.615336   -3.383075   -1.739390
 H   -4.247241   -2.708176   -0.216412
 H   -2.565161   -3.247911   -0.325606
 H   -0.845322   -1.775123   -1.617992
 H   -1.442681   -0.347859   -2.479386
 H   -1.838884   -1.982808   -3.067945
 H   -1.347645   -1.644314    0.491114
 H   -2.470037   -1.774504    3.789353
 H    1.562033   -3.956221    2.273175
 H    2.696312   -4.820183   -2.329411
 H    4.389073   -4.499363   -2.740470
 H    2.843102   -2.413632   -2.779493
 H    4.293720   -2.263234   -1.798577
 H   -0.172834    4.882663   -0.589950
 H    3.730937    6.587754   -1.114345
 H    3.289857    2.735443    0.744460
 H   -0.340267    4.857076    1.899835
 H   -2.603278    5.145331    2.807084
 H   -4.211657    3.248658    2.769620
 H   -3.530979    1.069354    1.886273
