64 
6eb1_ligand_aiqm1.xyz
 C   -1.040724    0.499628    0.868870
 C    0.907960   -1.977480    1.409107
 C    2.307100   -3.380658    0.031515
 C    3.913311   -4.688802   -1.097235
 C    2.431129   -2.359570   -0.918234
 C    1.778409   -1.151088   -0.671516
 C    1.647318    3.768216    0.448382
 C    2.293491    5.859593   -0.590222
 C    3.866411    4.676425    0.797666
 C   -4.283380   -1.398020   -1.893453
 C   -3.069084   -1.754763   -1.053358
 C   -3.323472   -3.023770   -0.243192
 C   -1.827746   -1.909522   -1.927890
 O   -2.902811   -0.602167   -0.179465
 C   -1.948986   -0.722213    0.855334
 C   -2.651302   -0.926038    2.203620
 O   -1.753746   -1.112852    3.195251
 O   -3.836354   -0.959381    2.389520
 C    0.316550    0.371502    0.648042
 C    0.998359   -0.945236    0.467906
 C    1.556544   -3.184845    1.188283
 O    2.875189   -4.612985   -0.122185
 C    3.487087   -4.057007   -2.406210
 C    3.258998   -2.569850   -2.168087
 N    1.147143    1.448807    0.515116
 C    0.671979    2.661856    0.677077
 C    1.344863    4.863802   -0.368354
 C    3.552038    5.773470   -0.002333
 C    2.924271    3.678334    1.012953
 C   -0.690696    2.912598    1.038341
 C   -1.177535    4.207450    1.374106
 C   -2.502037    4.401571    1.666234
 C   -3.401510    3.313516    1.618013
 C   -2.958887    2.045773    1.332644
 C   -1.576349    1.808830    1.071146
 H    0.345357   -1.837950    2.323286
 H    4.129104   -5.750584   -1.202724
 H    4.805095   -4.181878   -0.711854
 H    1.879348   -0.343137   -1.388292
 H    2.047302    6.700283   -1.225947
 H    4.848905    4.594891    1.244624
 H   -4.106736   -0.457756   -2.415803
 H   -4.471652   -2.183429   -2.627519
 H   -5.159819   -1.288789   -1.254771
 H   -3.586873   -3.837519   -0.920094
 H   -4.145147   -2.869093    0.456102
 H   -2.436500   -3.329710    0.314697
 H   -0.934951   -2.102477   -1.329652
 H   -1.664183   -1.000795   -2.509164
 H   -1.961730   -2.746397   -2.615034
 H   -1.328579   -1.608014    0.728909
 H   -2.260916   -1.227826    4.008828
 H    1.490586   -3.991329    1.907084
 H    2.567396   -4.536149   -2.753297
 H    4.258255   -4.218912   -3.160786
 H    2.769299   -2.102934   -3.022121
 H    4.222306   -2.065181   -2.049781
 H    0.373350    4.932994   -0.843387
 H    4.285372    6.550146   -0.174834
 H    3.170737    2.809117    1.608762
 H   -0.489532    5.038898    1.414900
 H   -2.861265    5.387665    1.928772
 H   -4.452664    3.480176    1.815491
 H   -3.665297    1.231267    1.285616
