74 
6eb2_ligand_aiqm1.xyz
 C   -0.949096   -1.547070   -0.619008
 C   -1.968724    1.273260   -1.732680
 C   -3.064147    3.190999   -0.759866
 C   -3.904667    5.242495    0.046947
 C   -2.528886    2.884704    0.496831
 C   -1.709733    1.759889    0.604835
 C    2.724812   -0.565090    1.230378
 C    5.402276    1.673145    2.201709
 C   -4.325404   -1.082454    1.018466
 C   -4.388010   -2.300143    0.100256
 C   -4.918324   -3.513594    0.844552
 C   -5.238446   -2.005870   -1.133388
 O   -3.037352   -2.689342   -0.277426
 C   -2.347362   -1.822617   -1.153776
 C   -2.309138   -2.417453   -2.567182
 O   -1.721002   -1.566700   -3.436045
 O   -2.762365   -3.475717   -2.905845
 C   -0.562996   -0.265184   -0.282404
 C   -1.433362    0.932021   -0.484881
 C   -2.778379    2.393088   -1.865066
 O   -3.903013    4.247321   -0.974338
 C   -4.057445    4.622636    1.420529
 C   -2.833086    3.758858    1.694741
 N    0.630611    0.013532    0.323427
 C    1.496237   -0.954169    0.524965
 C    3.484037   -1.257768    2.200284
 N    4.495062   -0.516860    2.652395
 N    4.392113    0.650405    1.995457
 C    6.457339    1.677334    1.118442
 C    6.828821    0.492161    0.479578
 C    7.821911    0.505345   -0.496397
 C    8.450884    1.698519   -0.843398
 C    8.078815    2.882446   -0.211722
 C    7.083769    2.871331    0.761613
 C    3.351670    0.668156    1.140489
 C    1.259569   -2.303271    0.105321
 C    2.247277   -3.323098    0.186430
 C    1.952634   -4.610544   -0.179087
 C    0.653121   -4.936865   -0.624357
 C   -0.312782   -3.969005   -0.749257
 C   -0.018119   -2.613590   -0.417540
 H   -1.745213    0.674986   -2.606654
 H   -2.968459    5.810069   -0.003478
 H   -4.732162    5.904976   -0.200846
 H   -1.275041    1.517511    1.568826
 H    5.849397    1.457896    3.171561
 H    4.911157    2.645428    2.255627
 H   -3.886588   -0.219436    0.513561
 H   -3.723630   -1.309754    1.899672
 H   -5.331698   -0.810423    1.340892
 H   -4.263855   -3.745282    1.684815
 H   -4.954763   -4.374210    0.176693
 H   -5.922538   -3.310054    1.220563
 H   -5.192275   -2.839965   -1.833559
 H   -6.275903   -1.858851   -0.830196
 H   -4.909066   -1.097928   -1.642114
 H   -2.864576   -0.871095   -1.267435
 H   -1.724728   -2.004772   -4.296504
 H   -3.201247    2.663694   -2.823941
 H   -4.967443    4.016740    1.441490
 H   -4.157631    5.409283    2.169893
 H   -2.975456    3.140534    2.580469
 H   -1.970562    4.400016    1.900439
 H    3.331364   -2.248693    2.600510
 H    6.332434   -0.430094    0.750737
 H    8.104469   -0.417269   -0.987033
 H    9.222211    1.706599   -1.601826
 H    8.559180    3.815129   -0.477769
 H    6.795795    3.798219    1.244877
 H    3.127877    1.529768    0.533596
 H    3.244218   -3.071005    0.516305
 H    2.712386   -5.378680   -0.123560
 H    0.417254   -5.962378   -0.878288
 H   -1.303621   -4.242001   -1.078207
