88 
6efk_ligand_xtb.xyz
 C   -4.442362   -1.520203   -0.793256
 O   -3.862818   -2.474586   -0.296910
 C   -4.621072   -1.369417   -2.281323
 N   -4.981250   -0.511004   -0.075219
 C   -4.817101   -0.283008    1.358996
 C   -3.361390    0.133959    1.599112
 O   -3.077106    1.272623    1.958362
 C   -5.264586   -1.484223    2.211638
 C   -6.752038   -1.762386    1.962403
 C   -4.982659   -1.185506    3.681681
 C   -7.206578   -3.103070    2.526667
 N   -2.466666   -0.831910    1.372520
 C   -1.086181   -0.497469    1.111505
 C   -1.029605    0.245202   -0.243116
 O   -2.009976    0.387707   -0.947152
 C   -0.197758   -1.739116    1.173352
 C   -0.257991   -2.608414   -0.079548
 C    0.618009   -3.820253    0.064130
 O    1.372529   -4.038295    0.986162
 O    0.479567   -4.667370   -0.946567
 N    0.176640    0.772418   -0.494526
 C    0.488270    1.577944   -1.658131
 C    1.865472    1.105564   -2.145898
 O    2.004062   -0.019343   -2.582668
 C    0.319349    3.075323   -1.337402
 C    0.800266    3.453827    0.069740
 C   -0.064880    2.797828    1.132303
 O    0.405151    2.220904    2.098352
 O   -1.340949    2.959263    0.920914
 N    2.889306    1.975310   -2.054211
 C    4.249193    1.595012   -2.403463
 C    4.906580    1.095352   -1.100193
 O    5.613174    1.802402   -0.408050
 C    5.012737    2.768015   -3.025311
 C    6.405812    2.305851   -3.445529
 C    4.254681    3.329319   -4.225710
 N    4.551107   -0.164508   -0.808789
 C    4.777766   -0.858158    0.443789
 C    3.742941   -1.996642    0.461434
 O    3.530722   -2.510007    1.655934
 C    4.628073    0.049865    1.670727
 C    3.216034    0.569622    1.713157
 O    3.001347    1.581956    2.510765
 O    2.344411    0.068829    1.028840
 O    3.218793   -2.389883   -0.548273
 H   -4.453228   -2.326203   -2.767101
 H   -5.607769   -0.990796   -2.533967
 H   -3.866350   -0.663939   -2.626740
 H   -5.289585    0.290852   -0.601905
 H   -5.442647    0.578395    1.616043
 H   -4.695846   -2.366067    1.908558
 H   -7.348598   -0.958553    2.400713
 H   -6.930741   -1.762455    0.884933
 H   -5.250082   -2.035818    4.301949
 H   -3.927807   -0.971851    3.835186
 H   -5.556425   -0.321559    4.011086
 H   -7.117429   -3.126273    3.609373
 H   -8.247747   -3.283999    2.269800
 H   -6.606206   -3.909565    2.112190
 H   -2.813020   -1.684283    0.931305
 H   -0.761727    0.207602    1.887195
 H    0.833386   -1.425644    1.325843
 H   -0.496152   -2.328995    2.042644
 H   -1.274466   -2.935085   -0.311519
 H    0.117086   -2.060167   -0.948535
 H    1.099549   -5.409586   -0.866334
 H    0.952414    0.505653    0.104832
 H   -0.232435    1.305358   -2.440757
 H    0.823857    3.678010   -2.094461
 H   -0.746422    3.304390   -1.387621
 H    1.838779    3.173229    0.253191
 H    0.706448    4.535007    0.194645
 H   -1.942896    2.401467    1.497897
 H    2.780739    2.867340   -1.601729
 H    4.171440    0.767878   -3.116263
 H    5.121358    3.544773   -2.260664
 H    6.955048    3.131488   -3.890763
 H    6.336360    1.502910   -4.176320
 H    6.962432    1.949149   -2.583930
 H    3.266449    3.684578   -3.943765
 H    4.135594    2.560884   -4.986319
 H    4.805827    4.159767   -4.659550
 H    3.882669   -0.646756   -1.408982
 H    5.780735   -1.307624    0.450964
 H    2.800665   -3.175832    1.601154
 H    4.824239   -0.517101    2.581387
 H    5.324580    0.887385    1.613434
 H    2.039302    1.863014    2.477060
