39 
6eil_ligand_ani-2x.xyz
 C    2.093369  -32.005500   -7.925273
 O    2.935364  -31.269870   -8.789291
 C    2.410953  -30.810526   -9.958116
 C    1.094475  -31.065917  -10.338541
 C    0.580464  -30.575811  -11.533071
 C    1.372315  -29.805927  -12.381273
 N    0.853498  -29.257001  -13.558113
 C    2.683619  -29.544707  -11.994890
 C    3.229843  -30.042719  -10.809843
 C    4.655476  -29.692701  -10.554558
 N    5.147115  -28.766833  -11.388206
 C    5.498551  -30.243759   -9.578903
 N    6.769062  -29.879263   -9.446041
 C    7.252941  -28.955296  -10.283058
 N    8.539198  -28.575334  -10.112568
 C    6.401975  -28.381530  -11.283095
 C    6.935714  -27.380639  -12.261007
 O    8.146055  -27.280821  -12.448227
 C    6.010454  -26.512813  -13.044667
 C    4.682935  -26.237630  -12.710774
 C    3.962634  -25.363398  -13.511353
 C    4.585777  -24.802875  -14.621004
 N    5.853837  -25.046686  -14.955903
 C    6.541022  -25.871940  -14.174006
 H    1.228367  -31.410794   -7.605695
 H    1.745650  -32.931175   -8.400760
 H    2.703556  -32.252768   -7.055885
 H    0.442530  -31.658000   -9.705634
 H   -0.451402  -30.788599  -11.804591
 H    0.080406  -29.774484  -13.952321
 H    1.550424  -29.049452  -14.261178
 H    3.323309  -28.938276  -12.627850
 H    5.138356  -30.998710   -8.894495
 H    9.083487  -29.137830   -9.478255
 H    8.993927  -28.079501  -10.867343
 H    4.227946  -26.701084  -11.841166
 H    2.928620  -25.123246  -13.280237
 H    4.042337  -24.120864  -15.271912
 H    7.578738  -26.050424  -14.445096
