59 
6eip_ligand_ani-2x.xyz
 C   -1.009605   -0.463084    0.253279
 C   -0.758440   -1.737268    0.847880
 C    0.580307   -2.077158    0.994923
 N    1.603571   -1.317676    0.606509
 N    0.015396    0.336879   -0.037480
 C   -1.889362    2.104784   -1.388450
 C   -1.084155    3.328598   -0.914384
 C   -1.708548    3.697607    0.435966
 C   -1.945045    2.326893    1.078283
 C   -2.474206    1.469310   -0.094037
 N   -2.290284    0.013527    0.026522
 C   -3.225155   -0.765434   -0.807497
 C   -4.701020   -0.518522   -0.436068
 C   -5.468200   -1.804629   -0.822307
 C   -4.403038   -2.778857   -1.370994
 C   -3.087757   -2.306673   -0.750899
 C   -2.968661   -2.821779    0.681778
 O   -3.864035   -3.448821    1.225099
 N   -1.779228   -2.577435    1.342154
 C   -1.579322   -3.282003    2.607217
 C    1.264596   -0.121055    0.119601
 N    2.218850    0.785709   -0.272674
 C    3.618478    0.777138   -0.203041
 C    4.388487   -0.380978   -0.049864
 C    5.771906   -0.275366   -0.005111
 C    6.413103    0.958961   -0.107165
 C    7.899611    1.111834   -0.064498
 O    8.466851    2.068802   -0.561834
 N    8.591492    0.097392    0.550235
 C    5.639287    2.103964   -0.296557
 C    4.260104    2.016468   -0.339887
 H    0.843004   -3.035692    1.438247
 H   -1.264616    1.393115   -1.934274
 H   -2.713840    2.403944   -2.048204
 H   -0.042851    3.022789   -0.752191
 H   -1.086398    4.150442   -1.637553
 H   -2.661242    4.224263    0.286391
 H   -1.068802    4.345511    1.045184
 H   -0.984108    1.944101    1.430206
 H   -2.642294    2.346546    1.923768
 H   -3.558257    1.627126   -0.114594
 H   -3.091789   -0.499042   -1.871936
 H   -4.761289   -0.336776    0.642021
 H   -5.100104    0.366726   -0.946766
 H   -5.947060   -2.237174    0.057783
 H   -6.248589   -1.612700   -1.565301
 H   -4.617328   -3.819507   -1.118015
 H   -4.334613   -2.705660   -2.463719
 H   -2.210996   -2.646853   -1.313201
 H   -1.169278   -4.287653    2.446698
 H   -2.541273   -3.380962    3.109679
 H   -0.893303   -2.705312    3.232227
 H    1.807288    1.661662   -0.557340
 H    3.909775   -1.347287    0.035861
 H    6.361829   -1.185239    0.084776
 H    8.139892   -0.464073    1.255803
 H    9.574493    0.283478    0.688309
 H    6.143133    3.058387   -0.414969
 H    3.662038    2.914814   -0.479085
