59 
6eip_ligand_dft.xyz
 C   -1.498976   -0.036830    0.157743
 C   -1.535292   -1.438105    0.387554
 C   -0.317491   -2.088810    0.374061
 N    0.861287   -1.482578    0.199090
 N   -0.329546    0.573634   -0.010310
 C   -1.876556    3.024763   -0.709070
 C   -0.823683    3.873601    0.023408
 C   -1.338952    3.955725    1.466682
 C   -1.875098    2.545076    1.728769
 C   -2.559188    2.164675    0.400326
 N   -2.658371    0.718311    0.164221
 C   -3.720905    0.366953   -0.787837
 C   -5.149190    0.670249   -0.299691
 C   -6.067554   -0.204711   -1.186941
 C   -5.125512   -1.144284   -1.974473
 C   -3.805023   -1.114781   -1.200934
 C   -3.875029   -2.025396    0.019803
 O   -4.888242   -2.625061    0.343921
 N   -2.716964   -2.125650    0.743674
 C   -2.708965   -2.996373    1.912767
 C    0.791003   -0.164577    0.033781
 N    1.934213    0.580431   -0.127407
 C    3.284371    0.228494   -0.158217
 C    3.765746   -1.078295   -0.014367
 C    5.134758   -1.311903   -0.055127
 C    6.050634   -0.275333   -0.237154
 C    7.532113   -0.471495   -0.294113
 O    8.278319    0.356820   -0.790083
 N    8.009199   -1.650941    0.224078
 C    5.560162    1.022301   -0.401048
 C    4.202207    1.273377   -0.355222
 H   -0.279064   -3.162565    0.546702
 H   -1.432316    2.400785   -1.487185
 H   -2.621403    3.670568   -1.187515
 H    0.137136    3.348034    0.016226
 H   -0.672706    4.855079   -0.435859
 H   -2.152976    4.689667    1.531908
 H   -0.568764    4.256781    2.182980
 H   -1.042213    1.871001    1.942624
 H   -2.574832    2.492618    2.567898
 H   -3.598108    2.490691    0.483994
 H   -3.543030    0.934322   -1.717421
 H   -5.227199    0.385335    0.755011
 H   -5.397531    1.732107   -0.375258
 H   -6.746596   -0.789922   -0.564422
 H   -6.676249    0.403525   -1.861869
 H   -5.521638   -2.157545   -2.055774
 H   -4.951477   -0.762503   -2.986370
 H   -2.950579   -1.408238   -1.820884
 H   -2.446308   -4.027501    1.649869
 H   -3.709120   -3.001158    2.346724
 H   -1.987813   -2.613404    2.637714
 H    1.730418    1.560093   -0.262667
 H    3.067355   -1.892156    0.116695
 H    5.479279   -2.339555    0.023875
 H    7.483053   -2.139326    0.931617
 H    9.014695   -1.707692    0.296450
 H    6.268541    1.827348   -0.565949
 H    3.838638    2.291170   -0.477439
