59 
6eip_ligand_aiqm1.xyz
 C   -0.997259   -0.429082    0.282186
 C   -0.751181   -1.716753    0.823132
 C    0.571918   -2.078118    0.953006
 N    1.605124   -1.284993    0.616422
 N    0.013912    0.360767   -0.060028
 C   -2.045235    2.146013   -1.287458
 C   -1.268336    3.399653   -0.848908
 C   -1.822001    3.722351    0.542031
 C   -1.941190    2.338133    1.174540
 C   -2.530898    1.491538    0.034856
 N   -2.305671    0.034215    0.156070
 C   -3.190657   -0.737977   -0.739235
 C   -4.682159   -0.601610   -0.394032
 C   -5.353560   -1.871884   -0.970736
 C   -4.204873   -2.726100   -1.544454
 C   -2.956306   -2.255611   -0.801497
 C   -2.897085   -2.862599    0.591005
 O   -3.784351   -3.567547    1.039404
 N   -1.774164   -2.559689    1.313069
 C   -1.628570   -3.124399    2.649546
 C    1.262758   -0.094842    0.140913
 N    2.224786    0.815925   -0.215455
 C    3.620971    0.755312   -0.178508
 C    4.360280   -0.362844    0.231702
 C    5.749254   -0.298509    0.230915
 C    6.429624    0.850526   -0.172123
 C    7.917460    0.956757   -0.190825
 O    8.498675    1.816874   -0.827213
 N    8.598437    0.011488    0.535395
 C    5.687099    1.952166   -0.599891
 C    4.304038    1.907892   -0.596409
 H    0.831790   -3.040821    1.379336
 H   -1.428817    1.461326   -1.868686
 H   -2.911056    2.416794   -1.896528
 H   -0.205318    3.156360   -0.755412
 H   -1.363225    4.226236   -1.553687
 H   -2.810957    4.183819    0.457171
 H   -1.182766    4.399932    1.108608
 H   -0.941431    1.985558    1.433603
 H   -2.565299    2.291097    2.068531
 H   -3.613170    1.612804    0.088541
 H   -3.042077   -0.365466   -1.762961
 H   -4.795828   -0.557055    0.691613
 H   -5.106612    0.311844   -0.811925
 H   -5.871497   -2.416710   -0.187172
 H   -6.082275   -1.625992   -1.742762
 H   -4.380522   -3.791142   -1.412270
 H   -4.074264   -2.524732   -2.609787
 H   -2.032678   -2.497685   -1.333400
 H   -0.989298   -4.012325    2.647059
 H   -2.619579   -3.411881    2.992380
 H   -1.197470   -2.374550    3.312780
 H    1.831073    1.674438   -0.566058
 H    3.855633   -1.263364    0.539384
 H    6.312286   -1.179997    0.516089
 H    8.143035   -0.441728    1.306523
 H    9.582138    0.192020    0.640635
 H    6.212417    2.834929   -0.935175
 H    3.734332    2.769334   -0.927346
