42 
6eiz_ligand_aiqm1.xyz
 C   42.753229   38.837263   23.540151
 C   41.758336   37.705085   23.550538
 C   41.673187   36.943690   22.254779
 C   41.026065   37.445376   24.642229
 C   40.001005   36.363432   24.831270
 C   40.438985   35.346804   25.892697
 C   39.434754   34.237520   26.093445
 C   39.407427   33.201379   24.997675
 C   38.629527   34.121351   27.159857
 C   38.523342   35.020776   28.358673
 C   37.164604   35.730314   28.477957
 C   36.982154   36.868240   27.498856
 C   37.570427   38.188165   27.929681
 C   36.382115   36.750484   26.305855
 C   35.802451   35.507392   25.719838
 O   34.471245   35.800417   25.296167
 H   42.773158   39.361684   24.497327
 H   43.758325   38.465642   23.326109
 H   42.508169   39.557286   22.755796
 H   40.969699   36.113360   22.294499
 H   41.371595   37.609723   21.442319
 H   42.655089   36.544891   21.987989
 H   41.204557   38.068728   25.518545
 H   39.058565   36.825036   25.139118
 H   39.798842   35.844775   23.888151
 H   41.386516   34.896662   25.579648
 H   40.639890   35.864627   26.834637
 H   38.652185   32.436751   25.188082
 H   39.199140   33.653861   24.025738
 H   40.377839   32.706064   24.912550
 H   37.952098   33.267222   27.167651
 H   38.674657   34.411723   29.255146
 H   39.319423   35.769625   28.356571
 H   37.073743   36.137008   29.488060
 H   36.359858   34.997884   28.373655
 H   38.652077   38.110974   28.073354
 H   37.379421   38.967120   27.190791
 H   37.144923   38.508732   28.883863
 H   36.289959   37.636983   25.685677
 H   35.795802   34.697811   26.456657
 H   36.411385   35.184917   24.869360
 H   34.124231   35.026220   24.849039
