42 
6eiz_ligand_ani-2x.xyz
 C   42.474450   38.951275   23.533893
 C   41.584210   37.736026   23.493771
 C   41.261193   37.227168   22.114077
 C   41.123949   37.170595   24.612432
 C   40.239530   35.952210   24.681881
 C   40.145215   35.354494   26.093099
 C   39.202896   34.182738   26.232547
 C   39.220573   33.176992   25.103850
 C   38.447749   33.961767   27.314386
 C   38.331429   34.819206   28.545227
 C   37.141375   35.803044   28.507739
 C   37.303209   36.901283   27.478249
 C   38.073401   38.116946   27.929917
 C   36.848074   36.823593   26.223638
 C   36.136784   35.673635   25.579199
 O   34.889972   36.138037   25.081494
 H   42.671658   39.277036   24.560705
 H   43.436479   38.747443   23.046916
 H   42.018231   39.787590   22.989199
 H   40.603899   36.353461   22.127130
 H   40.767682   38.007435   21.521355
 H   42.176973   36.955375   21.575015
 H   41.388910   37.643001   25.562924
 H   39.227651   36.210153   24.328206
 H   40.602238   35.183067   23.983853
 H   41.154916   35.025505   26.386666
 H   39.864566   36.147927   26.791807
 H   38.606565   32.301219   25.336229
 H   38.842301   33.614576   24.172804
 H   40.241413   32.828555   24.903920
 H   37.809867   33.073471   27.297715
 H   38.208217   34.167644   29.418708
 H   39.253751   35.387742   28.716795
 H   37.042726   36.262563   29.498545
 H   36.212021   35.247086   28.336300
 H   37.588488   38.597115   28.789975
 H   39.089502   37.852809   28.252030
 H   38.153313   38.857019   27.126354
 H   36.983207   37.696986   25.583521
 H   36.006334   34.853594   26.300405
 H   36.752134   35.281845   24.753882
 H   34.422949   35.383775   24.703640
