54 
6ej2_ligand_xtb.xyz
 C   -6.283512    0.292825    0.620537
 C   -3.909897    0.123703    0.618088
 C   -1.123655   -0.216846   -0.399194
 C   -1.435899    0.048403    1.080859
 C   -2.733570    0.828228    1.306701
 C   -2.996689    0.983671    2.802467
 C   -0.716671    1.107986   -1.084724
 C    0.753514    1.208686   -0.815847
 C    1.586813    2.307066   -0.888937
 C    2.931917    2.147485   -0.595367
 C    3.453115    0.903185   -0.243602
 C    0.174757   -1.074096   -0.516804
 C    0.330651   -2.264164    0.440839
 C    0.938353   -2.987541   -1.605892
 N    0.266071   -1.789943   -1.785448
 N    6.907664   -0.488953   -0.090458
 C    5.620962   -0.357690   -0.355574
 O   -5.052735    0.941009    0.802975
 C   -3.600954   -0.094290   -0.867764
 C   -2.321697   -0.900980   -1.054611
 C    2.606449   -0.206213   -0.177764
 C    1.267234   -0.032537   -0.448921
 O    1.014137   -3.265638   -0.289751
 N    1.411035   -3.780981   -2.458593
 C    4.879906    0.755806    0.049727
 C    5.605848    1.718180    0.755702
 N    6.895324    1.592722    1.010606
 C    7.485535    0.493701    0.576089
 H   -6.359594   -0.600940    1.252640
 H   -6.448920    0.001321   -0.422806
 H   -7.050624    1.007358    0.913861
 H   -4.078983   -0.854330    1.100558
 H   -1.528062   -0.902113    1.608745
 H   -0.605041    0.596566    1.531125
 H   -2.662381    1.828709    0.872183
 H   -3.928463    1.519730    2.956585
 H   -2.189179    1.538506    3.273970
 H   -3.072023    0.009239    3.281086
 H   -1.262375    1.965983   -0.698405
 H   -0.897785    1.055059   -2.162199
 H    1.201531    3.275535   -1.170942
 H    3.594989    2.997161   -0.662948
 H   -0.645782   -2.662607    0.740554
 H    0.913168   -2.022656    1.331515
 H    0.442373   -1.258813   -2.623495
 H    5.169605   -1.161212   -0.924358
 H   -3.509851    0.882223   -1.346233
 H   -4.429728   -0.623163   -1.342042
 H   -2.132887   -1.045740   -2.119492
 H   -2.453359   -1.889706   -0.608519
 H    2.996309   -1.174866    0.098346
 H    1.311316   -3.473487   -3.418172
 H    5.130530    2.611094    1.142882
 H    8.541513    0.388566    0.787023
