55 
6ej3_ligand_xtb.xyz
 C    2.330407   -0.832637   -2.151111
 C    1.022252   -1.279759   -2.254040
 C    1.847933    0.231883   -0.044623
 C    2.757587   -0.083272   -1.056297
 C    4.150130    0.370213   -0.959117
 C    0.128105   -0.962801   -1.251042
 C    0.545590   -0.199981   -0.164324
 C    6.151761    0.794605    0.312871
 C    0.187147   -0.458372    2.982641
 C   -1.319522   -1.324818   -1.110963
 C   -3.546006    0.816234   -1.579164
 C   -4.274477   -1.045204   -0.078523
 C   -2.268998    0.978105   -0.759186
 C   -4.692839    0.280433   -0.723512
 C   -0.588096   -0.059324    0.823883
 C   -1.847088   -0.322977   -0.057868
 C    6.924499    0.771362    1.593324
 N   -0.424569   -1.045909    1.888772
 N    0.708730   -0.990368    3.996091
 O   -5.812645    0.145055   -1.579694
 C    4.835863    0.357144    0.253403
 C    4.842625    0.842083   -2.075146
 C    6.729149    1.231029   -0.876541
 C   -3.017053   -0.861721    0.764987
 C   -0.569085    1.216547    1.677421
 C   -7.047417   -0.000746   -0.928163
 N    6.093305    1.257296   -2.033832
 O    0.134995    0.882381    2.859969
 H    3.041513   -1.087862   -2.922585
 H    0.712621   -1.869051   -3.104448
 H    2.160704    0.818012    0.807063
 H   -1.416149   -2.351918   -0.746966
 H   -1.850564   -1.257488   -2.057896
 H   -3.402085    0.130254   -2.413699
 H   -3.836283    1.779570   -2.000086
 H   -5.078168   -1.421804    0.556894
 H   -4.100753   -1.775899   -0.870078
 H   -1.458122    1.318167   -1.406856
 H   -2.445243    1.753705   -0.012624
 H   -4.929632    1.007670    0.073025
 H    6.263454    0.906025    2.446502
 H    7.428018   -0.189549    1.704693
 H    7.682081    1.551447    1.601151
 H   -0.153974   -1.982290    1.632171
 H    0.703738   -2.003057    3.984418
 H    4.349697   -0.010120    1.147150
 H    4.360250    0.906363   -3.041758
 H    7.754080    1.579100   -0.899596
 H   -3.231163   -0.161055    1.575843
 H   -2.742260   -1.814046    1.221355
 H   -0.057726    2.048496    1.190358
 H   -1.583936    1.523979    1.956244
 H   -7.212463    0.807354   -0.204410
 H   -7.808771    0.049976   -1.704417
 H   -7.131245   -0.961958   -0.408764
