55 
6ej3_ligand_aiqm1.xyz
 C    2.306840   -0.862751   -2.146132
 C    0.986184   -1.307860   -2.247931
 C    1.838381    0.161871   -0.006026
 C    2.745962   -0.125743   -1.038182
 C    4.149592    0.340730   -0.959776
 C    0.097878   -1.009235   -1.223464
 C    0.529212   -0.276290   -0.115061
 C    6.165924    0.810155    0.296504
 C    0.285271   -0.480083    2.992990
 C   -1.369078   -1.343148   -1.088709
 C   -3.520476    0.870609   -1.560126
 C   -4.327538   -1.003171   -0.109376
 C   -2.267955    0.996537   -0.692116
 C   -4.694592    0.328316   -0.760328
 C   -0.614666   -0.107517    0.874293
 C   -1.881994   -0.336626   -0.012954
 C    6.950196    0.862497    1.579762
 N   -0.472124   -1.076429    1.979477
 N    0.893635   -0.975019    3.986507
 O   -5.783173    0.211355   -1.662323
 C    4.842032    0.378427    0.254180
 C    4.838910    0.764016   -2.099531
 C    6.742956    1.199453   -0.915358
 C   -3.089444   -0.860822    0.773970
 C   -0.549523    1.175616    1.693086
 C   -7.027339    0.007679   -1.031091
 N    6.105710    1.186971   -2.089977
 O    0.307163    0.859863    2.792560
 H    3.011089   -1.104911   -2.932128
 H    0.670877   -1.876228   -3.114311
 H    2.159236    0.727915    0.858904
 H   -1.507805   -2.370817   -0.738307
 H   -1.899403   -1.252413   -2.033647
 H   -3.347592    0.197246   -2.404643
 H   -3.791695    1.841330   -1.979718
 H   -5.165165   -1.375543    0.485636
 H   -4.147738   -1.736665   -0.903301
 H   -1.429777    1.374568   -1.285072
 H   -2.468413    1.743124    0.084608
 H   -4.955013    1.043648    0.035138
 H    6.355055    0.500768    2.417904
 H    7.849883    0.250224    1.509250
 H    7.265390    1.883135    1.799723
 H   -0.142750   -1.994352    1.712573
 H    0.790251   -1.983873    3.994260
 H    4.349020    0.066229    1.168245
 H    4.340978    0.781515   -3.063148
 H    7.772134    1.543365   -0.942984
 H   -3.304503   -0.160777    1.589557
 H   -2.844904   -1.817607    1.241420
 H   -0.112760    2.015055    1.162169
 H   -1.537293    1.444048    2.078804
 H   -7.223089    0.786124   -0.285337
 H   -7.789428    0.055346   -1.804742
 H   -7.084628   -0.969355   -0.542821
