36 
6ej4_ligand_ani-2x.xyz
 C   19.041357  -26.708716   32.434564
 C   19.874730  -27.699576   31.906817
 N   20.219714  -28.816930   32.668944
 C   20.400761  -27.525422   30.621117
 C   20.096345  -26.382372   29.893961
 C   19.274266  -25.397331   30.427302
 C   18.731913  -25.560575   31.704481
 C   17.834918  -24.517601   32.263738
 C   18.091218  -23.166737   32.047278
 C   17.204821  -22.230625   32.569317
 C   16.691342  -24.874274   33.005946
 N   15.820648  -24.016824   33.527918
 C   16.108002  -22.735493   33.303295
 N   15.376593  -21.669928   33.752477
 C   15.970224  -20.508845   33.324791
 C   17.084702  -20.786345   32.582452
 C   17.947407  -19.800318   31.923836
 C   18.594320  -20.052901   30.710247
 C   19.385056  -19.066784   30.143585
 C   19.511197  -17.851144   30.807035
 N   18.904529  -17.582225   31.963978
 C   18.143408  -18.536824   32.492101
 H   18.656191  -26.830337   33.445333
 H   19.552060  -29.060950   33.387165
 H   20.497175  -29.625901   32.131364
 H   21.052545  -28.287724   30.200838
 H   20.513270  -26.255131   28.898324
 H   19.031934  -24.510048   29.848532
 H   18.992802  -22.878306   31.507836
 H   16.467469  -25.929235   33.159643
 H   14.535477  -21.745524   34.299156
 H   15.518852  -19.547182   33.546685
 H   18.461844  -21.008535   30.207607
 H   19.894975  -19.237221   29.200294
 H   20.126110  -17.054161   30.393097
 H   17.670824  -18.288957   33.441949
