31 
6ek3_ligand_aiqm1.xyz
 C  -33.341415   15.686135  168.826651
 C  -34.377137   16.439164  168.291367
 C  -35.702790   16.018978  168.403721
 C  -36.760232   16.884915  167.800445
 O  -36.559088   18.053095  167.525730
 N  -37.979642   16.291085  167.598864
 C  -35.987538   14.833260  169.085202
 C  -34.964931   14.077225  169.640952
 C  -33.645221   14.502118  169.501838
 O  -32.682077   13.666630  170.008672
 C  -31.516678   14.208009  170.494380
 C  -31.511634   15.338014  171.311763
 C  -30.304692   15.786724  171.835507
 C  -29.112291   15.119481  171.551818
 C  -27.787831   15.566250  172.081789
 O  -26.738582   15.215054  171.575696
 N  -27.827296   16.414920  173.157250
 C  -29.136933   13.998268  170.719800
 C  -30.332596   13.537817  170.190887
 H  -32.312166   16.006860  168.731608
 H  -34.180038   17.368363  167.776100
 H  -38.628539   16.836223  167.057137
 H  -38.034404   15.294445  167.492485
 H  -37.013997   14.516772  169.221958
 H  -35.163196   13.157830  170.174690
 H  -32.438539   15.856597  171.520661
 H  -30.287830   16.684940  172.440394
 H  -26.936711   16.587225  173.591608
 H  -28.629180   16.417663  173.760798
 H  -28.203405   13.506620  170.488581
 H  -30.375190   12.667621  169.549648
