31 
6ek3_ligand_xtb.xyz
 C  -33.384754   15.753066  168.836261
 C  -34.437725   16.491607  168.337721
 C  -35.747991   16.031267  168.436896
 C  -36.832084   16.893511  167.885863
 O  -36.735384   18.100654  167.813016
 N  -37.947054   16.237123  167.474231
 C  -35.989647   14.812505  169.065058
 C  -34.944022   14.074124  169.580734
 C  -33.635556   14.539168  169.470797
 O  -32.647575   13.720059  169.941027
 C  -31.487094   14.237058  170.448320
 C  -31.435484   15.431556  171.161273
 C  -30.240840   15.855458  171.710768
 C  -29.083243   15.098382  171.560237
 C  -27.759364   15.512143  172.107996
 O  -26.708573   15.169338  171.608012
 N  -27.803040   16.306258  173.208233
 C  -29.144318   13.907172  170.840318
 C  -30.333071   13.472135  170.295442
 H  -32.369900   16.106926  168.729892
 H  -34.261193   17.440446  167.854512
 H  -38.682693   16.777990  167.050647
 H  -37.980502   15.237426  167.394714
 H  -36.998737   14.447655  169.188783
 H  -35.118906   13.131582  170.075677
 H  -32.331599   16.020925  171.290429
 H  -30.218721   16.798720  172.236735
 H  -26.929871   16.569887  173.633764
 H  -28.653774   16.482841  173.709881
 H  -28.237834   13.334980  170.715642
 H  -30.391253   12.546337  169.745118
