38 
6eln_ligand_ani-2x.xyz
 N  -27.931800   13.094209   11.009192
 N  -28.259322   13.111291   12.304947
 C  -27.440275   12.229283   12.865890
 C  -26.545911   11.673188   11.890188
 C  -26.923964   12.257402   10.691476
 C  -27.582096   11.837136   14.284167
 C  -25.406649   10.769497   12.086875
 C  -26.433433   12.126868    9.281393
 C  -24.547805   10.919516   13.177424
 C  -23.473296   10.063179   13.380284
 C  -23.236314    9.027996   12.478674
 C  -24.084895    8.865736   11.379840
 C  -25.146763    9.728282   11.188514
 C  -27.910345   12.759044   15.296890
 C  -28.036875   12.347960   16.620685
 C  -27.854874   11.014064   16.961813
 C  -27.542535   10.078243   15.977300
 C  -27.413321   10.503587   14.666365
 O  -27.996056   10.682311   18.271474
 O  -28.082968   14.059555   14.968329
 O  -22.217904    8.134335   12.581911
 C  -21.343650    8.269961   13.681155
 H  -28.439004   13.694500   10.375803
 H  -26.911385   11.287651    8.761714
 H  -26.646432   13.031470    8.700830
 H  -25.353410   11.956332    9.266654
 H  -24.740912   11.709255   13.900729
 H  -22.834778   10.212348   14.243293
 H  -23.887272    8.052559   10.689171
 H  -25.802691    9.573164   10.334398
 H  -28.281110   13.060125   17.407697
 H  -27.399961    9.031556   16.234315
 H  -27.148600    9.775406   13.904544
 H  -27.846853    9.734033   18.374130
 H  -28.295861   14.551145   15.772141
 H  -21.877166    8.159584   14.634550
 H  -20.608641    7.469878   13.582859
 H  -20.829873    9.240351   13.668390
