46 
6emh_ligand_dft.xyz
 C    6.332970    1.806902  -15.662528
 C    8.325360    0.434274  -15.908413
 C   10.460034   -0.747917  -16.314269
 C   11.151195   -1.307121  -17.551892
 C    9.208714   -2.664761  -17.705569
 C    4.207694    6.700696  -15.087665
 C    3.957133    6.099837  -13.864416
 N    4.550404    4.987859  -13.427829
 C    5.463854    4.427297  -14.231990
 C    5.819563    4.970159  -15.477211
 C    5.178038    6.123337  -15.921122
 C    5.510331    6.707855  -17.218111
 N    5.993637    5.947862  -18.267365
 C    6.220302    6.787113  -19.306442
 N    5.939278    8.031150  -18.999855
 C    5.492332    8.001559  -17.700691
 C    5.104029    9.264038  -16.998912
 N    6.067117    3.298264  -13.728903
 C    6.816484    2.355363  -14.472648
 C    7.076878    0.882728  -16.380645
 C    8.794041    0.971968  -14.696043
 C    8.058990    1.927706  -14.008364
 N    9.063414   -0.496737  -16.614456
 O   10.578612   -2.513580  -18.017612
 C    8.458527   -1.340083  -17.629648
 H    5.361718    2.120201  -16.035369
 H   10.587206   -1.437845  -15.464369
 H   10.953575    0.194236  -16.049821
 H   12.201341   -1.516591  -17.327450
 H   11.118647   -0.546407  -18.346422
 H    9.095384   -3.189821  -16.744844
 H    8.772673   -3.294068  -18.486879
 H    3.650712    7.577212  -15.395289
 H    3.218485    6.529710  -13.190532
 H    6.620349    4.514787  -16.049880
 H    6.082069    4.943905  -18.272884
 H    6.589995    6.440267  -20.261567
 H    5.634943   10.105138  -17.451323
 H    4.029257    9.463568  -17.089049
 H    5.349290    9.223066  -15.933227
 H    5.742505    3.042298  -12.807253
 H    6.683259    0.511213  -17.320675
 H    9.736130    0.636519  -14.276815
 H    8.449243    2.345683  -13.084841
 H    8.449399   -0.854966  -18.618561
 H    7.418892   -1.556872  -17.358351
