86 
6en4_ligand_xtb.xyz
 C    0.517388    0.010233   -0.673108
 C   -0.475837    1.220057    1.290721
 C   -0.545511    0.369481    0.057320
 C    1.883465    0.398072   -0.417281
 C    2.896365    0.006588   -1.190569
 C   -1.925504   -0.060893   -0.363929
 C   -2.782090    1.130858   -0.851332
 C   -3.749055   -2.371598    1.883947
 C   -5.088631   -3.051840    1.524438
 C   -5.997796   -2.140676    0.679887
 C   -6.420391   -0.875365    1.415194
 C   -7.321846    0.079501    0.616422
 C   -3.047656   -1.905512    0.630405
 C   -8.675502   -0.551791    0.275224
 O   10.465154   -1.311651    1.083551
 C    6.153047    1.171967    0.523688
 C    9.168957   -1.025466    1.561136
 C    8.407833   -0.821481   -0.838736
 C    8.386008   -0.165164    0.542480
 C    9.847915   -1.277066    3.981620
 O    6.625643    1.078828    1.840971
 C    9.222985   -0.357564    2.939247
 O   -2.929987   -2.581883   -0.364732
 O   -2.594468   -0.666706    0.759750
 O   -4.857622   -4.265888    0.861304
 O   -7.508746    1.199396    1.460528
 C    6.948753    0.025142    0.975365
 O   -7.440306    1.615491   -1.217104
 O   -6.653536    1.237794   -3.284083
 C    4.664498    1.047803    0.294444
 C    4.345127    0.366882   -1.041633
 C    4.753013    1.245961   -2.230801
 C   -4.175592    0.650573   -1.113138
 C   -5.238596    1.051216   -0.436471
 C   -6.625753    0.545432   -0.689292
 C   -7.351410    1.857479   -2.529169
 C   -8.260692    2.995274   -2.918687
 C   -2.176774    1.726671   -2.120973
 H    0.366384   -0.616669   -1.542786
 H   -1.396729    1.124554    1.859419
 H    0.354501    0.919179    1.925012
 H   -0.336997    2.268967    1.026379
 H    2.057931    1.033200    0.436754
 H    2.684467   -0.619160   -2.049384
 H   -1.865489   -0.810637   -1.161712
 H   -2.803061    1.885684   -0.060418
 H   -3.115318   -3.118799    2.367743
 H   -3.890174   -1.534916    2.564032
 H   -5.606220   -3.318469    2.453658
 H   -5.469683   -1.883643   -0.239601
 H   -6.873962   -2.732045    0.410082
 H   -6.959129   -1.138752    2.327192
 H   -5.540262   -0.301503    1.706108
 H   -8.549592   -1.418128   -0.366582
 H   -9.175510   -0.854542    1.191623
 H   -9.302385    0.173929   -0.239574
 H   10.974646   -0.492515    1.089807
 H    6.660342    1.930630   -0.067945
 H    8.683727   -2.004635    1.643049
 H    7.845668   -1.752476   -0.817745
 H    9.430743   -1.049415   -1.125341
 H    7.966728   -0.164851   -1.584730
 H    8.865054    0.819932    0.487276
 H    9.965654   -0.755388    4.928123
 H    9.218856   -2.149291    4.143195
 H   10.824400   -1.619250    3.646128
 H    8.216738   -0.074068    3.244573
 H    9.813942    0.559916    2.857045
 H   -4.272275   -4.078209    0.110077
 H   -7.967806    1.877241    0.949531
 H    6.416355   -0.901853    1.183719
 H    4.247754    0.456567    1.112213
 H    4.213903    2.041763    0.323567
 H    4.926133   -0.563081   -1.097692
 H    4.228785    2.198132   -2.189887
 H    5.822813    1.435377   -2.224511
 H    4.498829    0.754924   -3.167283
 H   -4.275806   -0.082369   -1.903020
 H   -5.164413    1.798111    0.342612
 H   -6.608751   -0.259167   -1.431528
 H   -8.088048    3.846397   -2.265492
 H   -9.295966    2.680754   -2.805669
 H   -8.075818    3.269166   -3.952458
 H   -2.157519    0.984415   -2.915305
 H   -1.159870    2.065431   -1.938434
 H   -2.776617    2.569607   -2.454321
