16 
6eq2_ligand_aiqm1.xyz
 C  -13.137746   12.953386   12.682288
 C  -13.858832   11.639654   14.295344
 C  -14.505914   10.877865   15.248129
 C  -13.673867   10.130136   16.077271
 C  -12.284605   10.176224   15.904943
 C  -12.451111   11.626998   14.194712
 N  -13.204825   13.917808   11.700019
 N  -14.282715   12.481977   13.278447
 N  -11.655132   10.905727   14.978279
 N  -12.033000   12.458115   13.164008
 H  -15.583848   10.857490   15.353901
 H  -14.095177    9.508940   16.855890
 H  -11.649225    9.586700   16.553947
 H  -12.299104   14.067104   11.281108
 H  -13.917458   13.763858   11.004897
 H  -15.186441   12.910018   13.191818
