17 
6eq5_ligand_ani-2x.xyz
 N    7.402044  -11.655277   14.535617
 C    6.236593  -12.393891   14.733833
 C    5.908487  -13.720119   14.490013
 C    4.631820  -14.128842   14.853904
 C    3.719539  -13.237044   15.441128
 C    4.057555  -11.912155   15.680376
 C    5.334879  -11.485842   15.321415
 N    5.914851  -10.225541   15.440312
 C    7.115979  -10.377500   14.956461
 N    8.050213   -9.365036   14.810767
 H    8.145813  -11.889947   13.894689
 H    6.613442  -14.413063   14.037944
 H    4.332547  -15.159385   14.681295
 H    2.728250  -13.589707   15.713940
 H    3.355348  -11.217526   16.132968
 H    7.726259   -8.515953   15.258219
 H    8.981380   -9.607171   15.125122
