45 
6eq8_ligand_dft.xyz
 C    3.471099   -0.119150   -0.806785
 C    2.663048   -1.189675   -0.056356
 C    3.511408   -2.352669    0.436605
 C   -3.221329   -1.391873   -0.291890
 C   -1.088414   -0.301928    0.441427
 C   -1.856114    1.002610    0.730457
 C   -3.347871    0.765349    0.959688
 C   -3.952872   -0.068864   -0.168209
 C   -1.754093   -1.156392   -0.626705
 C    2.596789    1.104606   -1.080298
 C    1.172996    0.408025    0.848915
 C    1.940075    1.565835    0.220334
 O    0.189515    0.038122   -0.062149
 O    1.038718    2.632394   -0.019118
 O    3.339422    2.168837   -1.638440
 O    4.589385    0.366029   -0.087330
 O    2.049062   -0.657721    1.119457
 O    4.457276   -1.925042    1.409364
 O   -1.758369    1.896721   -0.356204
 O   -4.037186    1.992447    1.077935
 O   -5.312799   -0.352117    0.090650
 O   -3.749565   -2.194896   -1.327580
 O   -1.057328   -2.379564   -0.715351
 H    3.796679   -0.552469   -1.765973
 H    1.884739   -1.572614   -0.728746
 H    2.856826   -3.129672    0.849979
 H    4.082656   -2.783051   -0.390086
 H   -3.288502   -1.926363    0.671017
 H   -0.991735   -0.900664    1.358675
 H   -1.437643    1.468743    1.636031
 H   -3.497041    0.227337    1.903487
 H   -3.848063    0.482712   -1.115018
 H   -1.702292   -0.608909   -1.579460
 H    1.811321    0.852690   -1.798521
 H    0.745882    0.691596    1.817139
 H    2.723368    1.879623    0.922050
 H    1.494530    3.223560   -0.636967
 H    4.181500    2.174899   -1.156433
 H    4.923302   -0.355604    0.474273
 H    3.937375   -1.506972    2.111441
 H   -0.820777    2.161615   -0.422910
 H   -3.615995    2.575783    0.426162
 H   -5.721240    0.494563    0.320428
 H   -4.706204   -2.225532   -1.192005
 H   -1.602054   -2.948204   -1.277529
