45 
6eq8_ligand_aiqm1.xyz
 C    3.517185    0.559027   -0.808561
 C    2.880847   -0.708302   -0.228312
 C    3.882662   -1.770375    0.176147
 C   -3.125284   -1.747771   -0.256422
 C   -1.075545   -0.491289    0.404464
 C   -1.950046    0.685768    0.883493
 C   -3.356738    0.226158    1.242708
 C   -3.986912   -0.559437    0.100630
 C   -1.752852   -1.282271   -0.704313
 C    2.426787    1.586177   -1.072464
 C    1.083863    0.509862    0.755536
 C    1.638766    1.817910    0.206469
 O    0.137315    0.006730   -0.152685
 O    0.548669    2.702052   -0.027519
 O    2.939902    2.819383   -1.539540
 O    4.452826    1.202625    0.042433
 O    2.125612   -0.415260    0.956023
 O    4.763747   -1.325156    1.205304
 O   -2.101844    1.675252   -0.116913
 O   -4.182113    1.323577    1.579851
 O   -5.265017   -1.056516    0.467839
 O   -3.668896   -2.497382   -1.329380
 O   -0.924756   -2.381789   -1.031869
 H    4.004455    0.292172   -1.753940
 H    2.226895   -1.134785   -0.995273
 H    3.339231   -2.660568    0.498352
 H    4.512435   -2.029384   -0.673902
 H   -3.021010   -2.386713    0.631926
 H   -0.873105   -1.153338    1.258622
 H   -1.492553    1.128075    1.774103
 H   -3.307304   -0.416486    2.125067
 H   -4.068963    0.097828   -0.772308
 H   -1.888324   -0.622959   -1.569661
 H    1.755899    1.214425   -1.844186
 H    0.653165    0.665388    1.746665
 H    2.305959    2.243163    0.963831
 H    0.884299    3.389339   -0.610787
 H    3.758509    2.977412   -1.059267
 H    4.927956    0.525520    0.535804
 H    4.220291   -1.185458    1.985872
 H   -1.233379    2.069923   -0.273753
 H   -3.929739    2.042437    0.990670
 H   -5.754265   -0.317931    0.839145
 H   -4.589099   -2.671291   -1.116633
 H   -1.439533   -2.945843   -1.615570
