45 
6eq8_ligand_ani-2x.xyz
 C    3.450342    0.515050   -0.850245
 C    2.834132   -0.736300   -0.206865
 C    3.880262   -1.773109    0.176749
 C   -3.098203   -1.743719   -0.297392
 C   -1.055174   -0.468977    0.448132
 C   -1.959403    0.694743    0.908937
 C   -3.373128    0.222423    1.233500
 C   -3.966543   -0.553875    0.061222
 C   -1.690203   -1.296380   -0.666238
 C    2.366790    1.561881   -1.071198
 C    1.109197    0.528633    0.823510
 C    1.660643    1.828347    0.255278
 O    0.152033    0.051670   -0.083317
 O    0.571170    2.716121    0.051979
 O    2.890860    2.769903   -1.582015
 O    4.420303    1.135207   -0.027736
 O    2.136621   -0.411494    1.005087
 O    4.761903   -1.284419    1.180198
 O   -2.095206    1.662336   -0.114292
 O   -4.212484    1.313062    1.555739
 O   -5.252295   -1.035418    0.392899
 O   -3.615526   -2.444571   -1.409640
 O   -0.867455   -2.418393   -0.898901
 H    3.897824    0.233969   -1.819701
 H    2.125598   -1.182248   -0.920028
 H    3.382258   -2.691280    0.512811
 H    4.501581   -2.013358   -0.691174
 H   -3.032524   -2.412598    0.581230
 H   -0.836459   -1.136593    1.294826
 H   -1.537177    1.166202    1.815639
 H   -3.354830   -0.429395    2.114846
 H   -4.016837    0.117734   -0.814252
 H   -1.755565   -0.656911   -1.561175
 H    1.636486    1.193198   -1.797741
 H    0.662378    0.704716    1.812330
 H    2.384300    2.257274    0.961259
 H    0.917196    3.422453   -0.515471
 H    3.698227    2.941210   -1.071671
 H    4.917640    0.431703    0.428954
 H    4.188502   -0.995774    1.906785
 H   -1.230140    2.101306   -0.218084
 H   -4.016973    1.993798    0.892487
 H   -5.715715   -0.284780    0.793362
 H   -4.538606   -2.649238   -1.203753
 H   -1.325800   -2.944208   -1.569170
