61 
6er3_ligand_xtb.xyz
 C    0.103451   -1.802303    1.768412
 C   -0.149592   -1.377167    0.302013
 C   -1.075738   -2.397376   -0.378979
 C   -2.545886   -2.175788   -0.002870
 C   -2.895598   -0.717660   -0.340310
 C   -1.989248    0.225294    0.453925
 C   -2.155449    1.687184   -0.017805
 C   -1.464200    2.622712    0.989591
 C   -1.540109    4.077488    0.521839
 C   -5.245832   -0.669444   -0.996091
 C   -6.637089   -0.292067   -0.548189
 N   -4.284800   -0.426056   -0.072206
 O    1.139317   -2.259761    2.167563
 O   -0.954881   -1.618117    2.553856
 O    1.049164   -1.421611   -0.413481
 O   -3.386696   -3.093850   -0.644634
 O   -0.616143   -0.053361    0.250639
 O   -1.665975    1.851233   -1.310860
 O   -2.099732    2.471837    2.238303
 O   -0.896177    4.866520    1.504558
 O   -4.988922   -1.147141   -2.082485
 C    3.517503    1.380840   -0.945638
 C    2.281861    0.501953   -1.244683
 C    2.052239   -0.464167   -0.078546
 C    3.358305   -1.245296    0.178826
 C    4.532170   -0.278542    0.373255
 C    5.868169   -1.023249    0.477187
 O    3.761454    2.239547   -2.009405
 O    1.172338    1.342834   -1.443434
 O    3.633011   -2.089264   -0.909385
 O    4.659884    0.612457   -0.722145
 O    6.926271   -0.145155    0.741932
 H   -0.954366   -2.271650   -1.456750
 H   -0.760797   -3.406930   -0.114388
 H   -2.681452   -2.345035    1.073562
 H   -2.736131   -0.553031   -1.414878
 H   -2.236311    0.162169    1.522864
 H   -3.222255    1.933785   -0.045931
 H   -0.404035    2.337020    1.065075
 H   -1.051017    4.168142   -0.453220
 H   -2.594295    4.370363    0.423522
 H   -6.655127    0.730447   -0.179463
 H   -6.955005   -0.959794    0.249848
 H   -7.321701   -0.390841   -1.385109
 H   -4.531946   -0.122761    0.855851
 H   -0.751363   -1.891011    3.466067
 H   -3.694231   -2.716502   -1.483627
 H   -0.760487    1.491387   -1.326622
 H   -1.801440    3.213370    2.781755
 H   -0.878701    5.781584    1.209039
 H    3.289117    2.018107   -0.071625
 H    2.479440   -0.094401   -2.149525
 H    1.756849    0.102627    0.808195
 H    3.229289   -1.838232    1.096001
 H    4.358116    0.306098    1.291099
 H    5.828988   -1.731083    1.306061
 H    6.024617   -1.569381   -0.460363
 H    4.280137    1.752972   -2.663199
 H    1.477320    2.096839   -1.969203
 H    2.810945   -2.555219   -1.112384
 H    6.901087    0.546634    0.069620
