61 
6er3_ligand_ani-2x.xyz
 C   -0.015088   -1.907129    1.633154
 C   -0.182023   -1.483590    0.155327
 C   -1.106903   -2.385327   -0.640386
 C   -2.577993   -2.186364   -0.311820
 C   -2.933765   -0.688173   -0.377110
 C   -1.941838    0.199782    0.385002
 C   -2.054320    1.657251   -0.093281
 C   -1.242934    2.596566    0.802489
 C   -1.341678    4.045044    0.339759
 C   -5.403358   -0.589572   -0.580564
 C   -6.692641   -0.131655    0.061580
 N   -4.267806   -0.414442    0.141651
 O    0.653058   -1.297107    2.428837
 O   -0.672507   -3.031470    1.953553
 O    1.092697   -1.539787   -0.433085
 O   -3.309829   -2.931124   -1.255256
 O   -0.592543   -0.146655    0.119437
 O   -1.662745    1.766394   -1.445854
 O   -1.759994    2.498618    2.113127
 O   -0.621481    4.807096    1.300221
 O   -5.389219   -1.107443   -1.696489
 C    3.459480    1.282558   -1.137717
 C    2.295763    0.324222   -1.383136
 C    2.005157   -0.491401   -0.124721
 C    3.297091   -1.154881    0.369826
 C    4.395588   -0.106247    0.525577
 C    5.741265   -0.690597    0.926965
 O    3.751638    1.915758   -2.349651
 O    1.148592    1.057670   -1.770188
 O    3.744371   -2.113312   -0.560130
 O    4.607898    0.591155   -0.701224
 O    6.696196    0.331261    1.096792
 H   -0.964056   -2.157197   -1.702535
 H   -0.837075   -3.432049   -0.487936
 H   -2.779614   -2.554350    0.706300
 H   -2.916644   -0.401161   -1.435986
 H   -2.123008    0.134891    1.468052
 H   -3.104428    1.973189   -0.035805
 H   -0.182056    2.289600    0.773343
 H   -0.919370    4.157410   -0.668253
 H   -2.402368    4.339695    0.316953
 H   -6.543709    0.521561    0.926091
 H   -7.263307   -1.011835    0.374562
 H   -7.284617    0.391047   -0.693377
 H   -4.339431   -0.050211    1.081426
 H   -0.494710   -3.183531    2.896853
 H   -4.104465   -2.429699   -1.521037
 H   -0.769123    1.381701   -1.522845
 H   -1.365765    3.238279    2.598092
 H   -0.890603    5.729152    1.226815
 H    3.179365    2.028213   -0.365705
 H    2.604643   -0.374387   -2.171964
 H    1.602712    0.166937    0.656942
 H    3.089441   -1.611777    1.352052
 H    4.094754    0.628460    1.294405
 H    5.647278   -1.200581    1.891843
 H    6.052410   -1.430705    0.176795
 H    4.682931    2.167443   -2.306951
 H    1.424215    1.604123   -2.522710
 H    2.973651   -2.661039   -0.766944
 H    6.721135    0.817915    0.261861
