82 
6er4_ligand_xtb.xyz
 C   -0.573343   -3.777075   -1.125974
 C   -0.494777   -2.246319   -1.349033
 C   -1.683259   -1.689412   -2.130349
 C   -2.956026   -1.692625   -1.278380
 C   -2.678173   -1.034857    0.084895
 C   -1.441685   -1.667062    0.759056
 C   -1.081074   -0.920521    2.072325
 C    0.264013   -1.326424    2.708932
 C    0.267205   -2.737724    3.323298
 C   -4.324104   -0.100954    1.654788
 C   -5.676537   -0.346010    2.275875
 N   -3.861929   -1.125411    0.911176
 O   -1.316834   -4.410302   -2.020693
 O    0.053128   -4.348525   -0.269940
 O    0.661686   -2.026621   -2.119553
 O   -4.006262   -1.031493   -1.928574
 O   -0.332913   -1.594637   -0.117016
 O   -1.016227    0.467546    1.879385
 O    1.356184   -1.189488    1.828740
 O   -0.292563   -3.746307    2.530085
 O   -3.689050    0.927897    1.822820
 C    2.597906    1.164957   -0.503900
 C    3.811706    0.982543    0.415051
 C    4.771587   -0.058067   -0.188118
 C    4.019945   -1.370800   -0.502706
 C    2.764960   -1.061705   -1.338450
 C    1.905854   -2.324091   -1.501796
 O    1.715411    2.006027    0.134470
 O    4.446778    2.226314    0.560439
 O    5.830743   -0.304479    0.698154
 O    3.755351   -2.060453    0.687189
 O    1.962224   -0.084235   -0.710575
 C   -1.656162    2.597503   -1.424158
 C   -0.402781    1.792090   -1.078863
 C    0.765642    2.711129   -0.661296
 C    0.328472    3.865579    0.255796
 C    1.428141    4.956670    0.359522
 C   -1.928233    3.644509   -0.338647
 O   -3.039016    4.385690   -0.729086
 O   -2.765923    1.731874   -1.537198
 O   -0.069738    1.035068   -2.216294
 O   -0.838164    4.513700   -0.200356
 O    2.656774    4.625392   -0.212657
 H   -1.832727   -2.269586   -3.039031
 H   -1.438580   -0.660721   -2.406671
 H   -3.305913   -2.722766   -1.124746
 H   -2.483211    0.028447   -0.097366
 H   -1.663864   -2.714261    1.010802
 H   -1.867063   -1.174201    2.799702
 H    0.408171   -0.616560    3.542635
 H   -0.328799   -2.721569    4.239520
 H    1.307514   -2.974725    3.583510
 H   -5.660553   -1.257557    2.868851
 H   -6.424843   -0.450489    1.493150
 H   -5.938898    0.494500    2.911404
 H   -4.451136   -1.931844    0.772425
 H   -1.260195   -5.373950   -1.896429
 H   -3.713381   -0.122284   -2.095859
 H   -1.930216    0.822068    1.850976
 H    1.119555   -0.524681    1.162410
 H    0.236316   -3.860431    1.726847
 H    2.928226    1.580288   -1.476487
 H    3.444510    0.628385    1.391405
 H    5.208509    0.360437   -1.102908
 H    4.685529   -2.023442   -1.081319
 H    3.078125   -0.688251   -2.326451
 H    1.750431   -2.769496   -0.518288
 H    2.441315   -3.033012   -2.141511
 H    5.338411    2.055853    0.894131
 H    5.543331   -1.028296    1.277833
 H    2.938704   -1.725931    1.106967
 H   -1.490440    3.119229   -2.377816
 H   -0.618267    1.141849   -0.221951
 H    1.248707    3.105900   -1.566000
 H    0.131733    3.412647    1.240156
 H    1.064692    5.824773   -0.196974
 H    1.548497    5.242173    1.412497
 H   -2.124149    3.126724    0.624519
 H   -2.983724    5.245445   -0.296973
 H   -3.549209    2.298162   -1.532933
 H    0.537800    0.330568   -1.936445
 H    3.039591    3.856232    0.236104
