82 
6er4_ligand_ani-2x.xyz
 C   -0.547945   -3.887761   -1.044163
 C   -0.447924   -2.366066   -1.315433
 C   -1.629934   -1.806485   -2.092116
 C   -2.900966   -1.696937   -1.249668
 C   -2.619643   -1.002134    0.092628
 C   -1.425667   -1.646352    0.823674
 C   -1.000031   -0.842531    2.079718
 C    0.359653   -1.226073    2.698413
 C    0.374204   -2.601277    3.351650
 C   -4.255608    0.152221    1.546434
 C   -5.627060    0.048829    2.170300
 N   -3.811434   -0.971351    0.918680
 O   -1.461909   -4.512935   -1.786176
 O    0.138570   -4.479706   -0.240337
 O    0.713344   -2.131302   -2.077655
 O   -3.912199   -1.004716   -1.950885
 O   -0.305258   -1.707299   -0.076606
 O   -0.909327    0.551672    1.809843
 O    1.439358   -1.128269    1.784016
 O   -0.071058   -3.645130    2.519413
 O   -3.569527    1.174939    1.612642
 C    2.507925    1.103148   -0.579693
 C    3.767500    1.004757    0.256698
 C    4.761937    0.014658   -0.345699
 C    4.097693   -1.343044   -0.589180
 C    2.814779   -1.166233   -1.412374
 C    1.978395   -2.442531   -1.496334
 O    1.557807    1.802956    0.157393
 O    4.320821    2.306210    0.329826
 O    5.879680   -0.117440    0.506919
 O    3.893535   -1.994876    0.652043
 O    1.966441   -0.175571   -0.836638
 C   -1.667451    2.632045   -1.589879
 C   -0.477352    1.771739   -1.203058
 C    0.642157    2.613183   -0.572693
 C    0.089611    3.564511    0.480665
 C    1.217226    4.389587    1.117102
 C   -2.023636    3.642947   -0.495303
 O   -2.982926    4.511532   -1.027236
 O   -2.791561    1.794516   -1.838643
 O   -0.034624    1.062700   -2.338201
 O   -0.898210    4.404938   -0.102899
 O    2.281023    4.673943    0.228803
 H   -1.824045   -2.432118   -2.965549
 H   -1.346532   -0.809606   -2.449015
 H   -3.284521   -2.707115   -1.057554
 H   -2.365477    0.034934   -0.131161
 H   -1.686623   -2.664183    1.131612
 H   -1.766121   -1.014931    2.848384
 H    0.529474   -0.482347    3.489836
 H   -0.306059   -2.588152    4.211753
 H    1.389122   -2.789240    3.732672
 H   -5.651181   -0.750124    2.918378
 H   -6.386833   -0.171287    1.412696
 H   -5.867578    0.996400    2.652110
 H   -4.468433   -1.731514    0.806767
 H   -1.412743   -5.450107   -1.531270
 H   -3.628992   -0.074394   -2.018910
 H   -1.824557    0.905047    1.839835
 H    1.050061   -0.954281    0.905987
 H    0.450643   -3.667047    1.702239
 H    2.709728    1.612235   -1.538163
 H    3.478978    0.657442    1.259399
 H    5.125695    0.422994   -1.297750
 H    4.793267   -1.980137   -1.147680
 H    3.088754   -0.841148   -2.430715
 H    1.873263   -2.885683   -0.498742
 H    2.479469   -3.175952   -2.139409
 H    5.173196    2.211357    0.777502
 H    5.624065   -0.795781    1.153976
 H    3.119363   -1.608512    1.102216
 H   -1.393938    3.197046   -2.490861
 H   -0.792168    1.082705   -0.413269
 H    1.158650    3.177895   -1.363445
 H   -0.379824    2.952946    1.272374
 H    0.802920    5.345722    1.452953
 H    1.592905    3.851095    1.999133
 H   -2.419868    3.104696    0.389837
 H   -2.884429    5.344802   -0.548782
 H   -3.532625    2.394309   -2.021300
 H    0.588491    0.384141   -2.020107
 H    2.937526    3.961399    0.316097
