52 
6eya_ligand_xtb.xyz
 C   66.185497   34.038044   24.160785
 C   64.983052   33.550048   24.759442
 C   64.989476   33.038922   26.046690
 O   63.814373   33.579259   24.099818
 C   67.417595   33.386997   26.100774
 C   66.205173   32.974246   26.711318
 C   68.417671   33.134688   27.090160
 C   69.878139   33.427073   27.001251
 C   70.405081   33.207018   25.610381
 C   71.074237   34.214863   24.930170
 C   71.298680   32.788846   23.013426
 C   70.201185   31.987664   24.978166
 C   70.372204   30.451942   23.007900
 C   69.929541   37.307626   23.895155
 C   69.113814   36.573873   23.037888
 C   67.205560   36.824877   24.515734
 N   66.987622   35.579924   22.442893
 C   69.368582   37.761410   25.062097
 C   68.913495   38.698173   27.022125
 C   67.398539   33.908114   24.814170
 C   66.091087   34.619756   22.804413
 O   65.229018   34.242306   22.007803
 N   66.544099   32.525226   27.942611
 N   67.870691   32.625277   28.165172
 C   70.637191   31.764728   23.680019
 C   71.520581   34.002779   23.637613
 C   67.783971   36.314914   23.343008
 C   67.029839   35.979357   21.047935
 C   68.024210   37.525402   25.361745
 O   67.718731   38.102662   26.562017
 O   69.939491   38.482128   26.077094
 H   64.068983   32.688627   26.483597
 H   64.005263   33.795064   23.157893
 H   70.397763   32.786417   27.718346
 H   70.050858   34.466198   27.298354
 H   71.242205   35.168668   25.409314
 H   71.644518   32.631768   22.001572
 H   69.682726   31.200706   25.508047
 H   70.475640   29.629648   23.712494
 H   69.353104   30.433260   22.619966
 H   71.055168   30.293710   22.176718
 H   70.961129   37.503440   23.657697
 H   69.535657   36.180988   22.127374
 H   66.167469   36.662369   24.749580
 H   69.200468   38.250564   27.987199
 H   68.757798   39.780309   27.156938
 H   68.320610   34.186172   24.331133
 H   65.945939   32.150487   28.659307
 H   72.043433   34.789950   23.114006
 H   67.151841   37.058736   20.976026
 H   67.850494   35.483702   20.525015
 H   66.090506   35.681077   20.583653
