52 
6eya_ligand_ani-2x.xyz
 C   66.051920   34.069277   24.222878
 C   64.804455   33.586837   24.758923
 C   64.762268   32.953721   25.992868
 O   63.647003   33.733280   24.106330
 C   67.212428   33.166312   26.127652
 C   65.974529   32.754271   26.653854
 C   68.179486   32.745905   27.103277
 C   69.672294   32.919742   27.104437
 C   70.321032   32.900423   25.733660
 C   70.986329   34.023016   25.243193
 C   71.484013   32.853258   23.196247
 C   70.251116   31.759134   24.936724
 C   70.761166   30.459459   22.832301
 C   70.083214   37.171330   24.058764
 C   69.250340   36.406245   23.235082
 C   67.257522   37.182876   24.396006
 N   67.081689   35.576634   22.522206
 C   69.472285   37.947306   25.016802
 C   68.959402   39.457764   26.561793
 C   67.240935   33.825237   24.891652
 C   66.029714   34.778071   22.907250
 O   65.075603   34.641990   22.132215
 N   66.260500   32.154687   27.838430
 N   67.582056   32.145026   28.118055
 C   70.831177   31.714471   23.667701
 C   71.560661   34.002340   23.978076
 C   67.864993   36.383165   23.412465
 C   67.113211   35.952225   21.107770
 C   68.091259   37.952325   25.174867
 O   67.756715   38.776479   26.215308
 O   70.044017   38.759079   25.960170
 H   63.809837   32.621629   26.391927
 H   63.861453   34.073641   23.205049
 H   70.079599   32.123556   27.738880
 H   69.925144   33.864288   27.605258
 H   71.045834   34.922267   25.854943
 H   71.930737   32.840623   22.205044
 H   69.738339   30.874375   25.314642
 H   71.635049   29.817957   22.999824
 H   69.870571   29.869414   23.073066
 H   70.729271   30.695128   21.763426
 H   71.164136   37.154968   23.951110
 H   69.682166   35.789176   22.450871
 H   66.179972   37.194953   24.536232
 H   69.080049   39.452417   27.647833
 H   68.923747   40.485927   26.172894
 H   68.181683   34.145021   24.459523
 H   65.611224   31.737961   28.484835
 H   72.060012   34.886920   23.585981
 H   68.048107   36.478985   20.904655
 H   67.059812   35.055952   20.484603
 H   66.269928   36.602957   20.846445
