46 
6eyb_ligand_xtb.xyz
 C   64.945581   33.088078   25.820325
 C   65.065166   33.700644   24.601834
 C   66.341965   33.914485   23.992421
 C   66.254174   35.054452   20.537166
 C   68.352491   36.065439   23.075397
 C   69.577894   36.363499   22.488790
 C   70.553707   37.011367   23.222182
 C   70.319464   37.357458   24.542466
 C   69.090858   37.078915   25.118572
 C   68.100943   36.447467   24.389353
 C   68.307038   32.373105   26.809253
 C   69.798477   32.321727   26.831529
 C   70.212210   31.348209   24.559542
 C   70.684155   31.437077   23.262934
 C   67.489038   33.498303   24.621584
 C   66.411179   34.538211   22.677250
 C   65.662598   34.283275   21.544491
 N   67.282585   35.730789   21.001055
 N   67.378486   35.425258   22.298984
 O   63.975777   34.152435   23.921391
 C   66.113357   32.672840   26.480308
 C   67.398528   32.887365   25.880043
 N   67.553238   31.913367   27.826138
 N   66.240396   32.075098   27.666350
 C   70.364749   32.412280   25.440113
 C   71.319890   32.590137   22.833087
 C   71.483531   33.650673   23.706645
 C   71.004961   33.563308   25.002581
 H   63.980568   32.927250   26.278286
 H   65.971410   35.139611   19.506454
 H   69.739667   36.087729   21.458794
 H   71.502070   37.246767   22.761581
 H   71.086552   37.854900   25.117400
 H   68.894859   37.367719   26.140767
 H   67.136381   36.257547   24.833554
 H   70.116873   31.387742   27.306236
 H   70.179404   33.151114   27.437500
 H   69.710548   30.450395   24.891532
 H   70.553798   30.606255   22.585370
 H   68.448367   33.636535   24.149562
 H   64.822347   33.626536   21.462234
 H   63.178919   33.964853   24.432218
 H   67.889403   31.477632   28.672438
 H   71.685751   32.661339   21.819768
 H   71.977234   34.552876   23.379295
 H   71.120413   34.402941   25.673226
