63 
6eyz_ligand_xtb.xyz
 C   -8.237765  -31.266160   23.720083
 C   -6.958399  -31.490505   24.176419
 C   -6.331523  -32.774448   23.985103
 C   -5.902752  -34.774643   23.432978
 C   -3.503763  -34.900926   24.468456
 C   -1.369071  -35.583901   23.590599
 C   -0.474695  -35.542509   22.356581
 N   -0.080878  -34.174789   22.059576
 O  -11.527816  -31.402206   19.687721
 C    1.272796  -32.629708   20.701335
 C   -4.818218  -34.301898   24.112981
 O  -14.103378  -29.284576   22.110814
 C  -10.264481  -29.870671   23.383254
 C  -14.919961  -28.507697   22.967146
 C   -8.896725  -30.027892   23.894746
 C  -12.853030  -29.497138   22.514159
 C  -11.230650  -29.159719   24.091314
 C   -6.964532  -29.171962   25.007042
 C  -10.668875  -30.423506   22.170721
 C    2.130981  -34.893662   21.247903
 C    0.865928  -34.085878   20.944406
 C   -6.291931  -30.427756   24.831750
 N   -5.044725  -28.965483   25.863129
 C   -5.044175  -30.230454   25.409796
 C   -1.292212  -33.403300   21.832342
 O   -5.091974  -33.020095   24.465533
 C   -2.188950  -33.443835   23.063606
 C  -12.326072  -30.856936   20.411770
 N   -2.570474  -34.810784   23.355225
 C   -8.271831  -28.981768   24.537239
 N   -6.168945  -28.303728   25.642256
 N   -6.845873  -33.800599   23.364542
 N  -12.469305  -28.979429   23.673592
 C  -11.968467  -30.251820   21.711165
 H   -8.749874  -32.079283   23.231043
 H   -6.061838  -35.738775   22.997812
 H   -3.652049  -35.960499   24.692880
 H   -3.114519  -34.397743   25.373091
 H   -1.650655  -36.620042   23.794764
 H   -0.802568  -35.194922   24.455952
 H   -1.018832  -35.994580   21.507991
 H    0.410701  -36.140698   22.566211
 H    0.476941  -32.055319   20.236105
 H    1.543983  -32.163753   21.645075
 H    2.132163  -32.596081   20.036589
 H  -15.889623  -28.449470   22.477848
 H  -15.012885  -28.982009   23.946248
 H  -14.498553  -27.509266   23.101680
 H  -11.007258  -28.722312   25.055489
 H   -9.981735  -30.982127   21.552296
 H    1.959456  -35.963866   21.176517
 H    2.908216  -34.638507   20.532117
 H    2.486018  -34.655334   22.247117
 H    0.406659  -34.483724   20.017191
 H   -4.288629  -28.494588   26.338839
 H   -4.200998  -30.879887   25.518371
 H   -1.032914  -32.362903   21.642126
 H   -1.858369  -33.793376   20.967569
 H   -1.649016  -32.991300   23.916031
 H   -3.086787  -32.854388   22.866779
 H   -8.749816  -28.023884   24.663311
 O  -13.620194  -30.759808   20.093221
 H  -13.775283  -31.178176   19.231452
