63 
6eyz_ligand_aiqm1.xyz
 C   -8.286209  -31.353678   23.576863
 C   -6.990704  -31.595041   23.942923
 C   -6.440974  -32.936201   23.797346
 C   -6.046208  -34.980044   23.396110
 C   -3.585865  -35.027065   24.330669
 C   -1.383479  -35.613140   23.617339
 C   -0.352301  -35.517194   22.507686
 N   -0.004684  -34.124053   22.243930
 O  -11.891142  -31.368095   19.770995
 C    1.379188  -32.534595   20.951922
 C   -4.923659  -34.475476   23.963875
 O  -14.234358  -29.167126   22.400880
 C  -10.307659  -29.868045   23.311912
 C  -14.971294  -28.379053   23.338277
 C   -8.887700  -30.055488   23.705402
 C  -12.954274  -29.403484   22.695710
 C  -11.175019  -29.130170   24.111533
 C   -6.812654  -29.218864   24.574469
 C  -10.846495  -30.392971   22.136373
 C    2.291368  -34.760483   21.582424
 C    1.021484  -34.000030   21.199991
 C   -6.216274  -30.506312   24.454797
 N   -4.830614  -29.025619   25.242730
 C   -4.910678  -30.326428   24.906116
 C   -1.226798  -33.400534   21.899370
 O   -5.169148  -33.149703   24.227750
 C   -2.253114  -33.499553   23.013111
 C  -12.633117  -30.771160   20.516893
 N   -2.597776  -34.892750   23.264213
 C   -8.162388  -28.998330   24.199977
 N   -5.946466  -28.311789   25.062903
 N   -7.010728  -33.986496   23.297824
 N  -12.459465  -28.903092   23.819028
 C  -12.178230  -30.173336   21.797318
 H   -8.871160  -32.174507   23.187065
 H   -6.216621  -35.981338   23.043618
 H   -3.708416  -36.092695   24.542700
 H   -3.250058  -34.534395   25.258954
 H   -1.631964  -36.665652   23.782601
 H   -0.949768  -35.213403   24.550542
 H   -0.745945  -36.008696   21.600593
 H    0.537173  -36.060758   22.828020
 H    0.580383  -31.981316   20.458155
 H    1.612248  -32.043467   21.899773
 H    2.257823  -32.474258   20.307743
 H  -15.968592  -28.307912   22.918141
 H  -15.001075  -28.864284   24.312887
 H  -14.529469  -27.388917   23.443265
 H  -10.819938  -28.706449   25.045597
 H  -10.240021  -30.977335   21.456800
 H    2.162032  -35.842598   21.554057
 H    3.092112  -34.514093   20.883379
 H    2.609696  -34.471543   22.586886
 H    0.641632  -34.424158   20.253265
 H   -4.022064  -28.554708   25.607010
 H   -4.075708  -30.993062   25.009246
 H   -0.993820  -32.345957   21.748585
 H   -1.669300  -33.791200   20.967273
 H   -1.852034  -33.026188   23.926795
 H   -3.150023  -32.953759   22.716335
 H   -8.590086  -28.008145   24.293983
 O  -13.936909  -30.609026   20.237618
 H  -14.062696  -31.051780   19.387457
