66 
6ez6_ligand_ani-2x.xyz
 C  -13.034500  -30.102195   22.723418
 C  -15.143814  -29.147750   23.142684
 C   -8.944176  -30.180836   23.789096
 C   -8.244775  -31.414636   23.874743
 C   -6.914574  -31.478131   24.243300
 C  -12.017808  -33.265807   19.142679
 O  -11.646938  -32.426833   20.236902
 C  -12.684282  -31.865102   20.901546
 O  -13.832479  -32.086893   20.611888
 C  -12.190538  -30.977425   21.999150
 C  -10.855425  -30.994748   22.364327
 C  -10.378238  -30.175396   23.389509
 C  -11.307221  -29.363012   24.024979
 N  -12.601470  -29.330158   23.708537
 O  -14.323578  -30.042032   22.398738
 C   -6.256458  -32.768678   24.300065
 N   -6.755151  -33.943299   24.066385
 C   -5.689426  -34.806457   24.258569
 C   -4.581936  -34.107981   24.600082
 C   -3.167202  -34.478986   24.886893
 N   -2.316460  -34.497857   23.703461
 C   -2.034599  -33.161942   23.192652
 C   -1.217753  -33.255263   21.914359
 N    0.042061  -33.949953   22.157507
 C   -0.237453  -35.281814   22.683463
 C   -1.062602  -35.190812   23.957528
 C    0.907870  -33.979775   20.974212
 C    1.207875  -32.561300   20.483992
 C    2.222508  -34.701354   21.279393
 O   -4.938840  -32.784991   24.630856
 C   -6.223858  -30.271349   24.543172
 C   -4.940339  -29.904774   24.942769
 N   -4.971243  -28.560575   25.047964
 N   -6.136665  -27.989648   24.763953
 C   -6.924616  -29.032884   24.449785
 C   -8.292734  -28.999374   24.072309
 H  -16.145200  -29.265722   22.727652
 H  -15.133574  -29.404892   24.205382
 H  -14.798296  -28.116633   23.027187
 H   -8.765791  -32.343315   23.662592
 H  -11.081139  -33.634845   18.726036
 H  -12.638609  -34.095524   19.488488
 H  -12.573370  -32.696541   18.393460
 H  -10.165951  -31.644165   21.832654
 H  -10.996596  -28.721920   24.847476
 H   -5.790615  -35.876562   24.130515
 H   -3.171818  -35.494877   25.302453
 H   -2.767097  -33.814841   25.678837
 H   -1.477394  -32.555758   23.934002
 H   -2.976457  -32.645305   22.990047
 H   -1.012391  -32.240950   21.561364
 H   -1.817997  -33.765940   21.136310
 H   -0.777306  -35.904041   21.943275
 H    0.703771  -35.786389   22.917482
 H   -1.281631  -36.205426   24.314232
 H   -0.465133  -34.685843   24.743309
 H    0.402019  -34.526039   20.151681
 H    0.341539  -32.092227   20.007067
 H    1.529279  -31.935363   21.323619
 H    2.010268  -32.579060   19.739310
 H    2.091279  -35.783656   21.376909
 H    2.941218  -34.539446   20.469546
 H    2.655425  -34.313811   22.208169
 H   -4.042725  -30.463818   25.159888
 H   -4.202220  -27.964600   25.319472
 H   -8.788649  -28.041474   23.988722
