40 
6ez9_ligand_ani-2x.xyz
 O    2.210292   -0.586397    1.436656
 C    2.747096    0.371659    0.928800
 O    2.446082    1.640223    1.227832
 C    3.804798    0.305997   -0.155000
 C    3.283978    0.900995   -1.473870
 C    2.228826    0.025489   -2.191261
 C    2.924239   -1.170669   -2.814021
 O    3.569815   -0.834788   -3.940993
 O    2.951664   -2.279100   -2.338437
 N    1.165963   -0.437388   -1.339041
 C    0.242190    0.463160   -0.899237
 O    0.080793    1.586263   -1.335055
 O   -0.504462   -0.046532    0.104598
 C   -1.601101    0.793078    0.495481
 C   -1.055317    2.103072    1.051229
 O   -1.741275    3.152524    0.609795
 O   -0.159669    2.204040    1.863598
 C   -2.389754    0.084284    1.587052
 C   -2.917946   -1.304045    1.208601
 C   -3.888911   -1.254584    0.026953
 C   -3.592836   -1.942904    2.421996
 H    1.623962    1.656481    1.761584
 H    4.672137    0.885982    0.178503
 H    4.112644   -0.736821   -0.272534
 H    2.827798    1.873431   -1.265722
 H    4.116780    1.060647   -2.166297
 H    1.782808    0.626374   -2.989387
 H    4.021488   -1.637736   -4.249886
 H    1.349636   -1.227968   -0.735676
 H   -2.225470    1.025312   -0.370949
 H   -1.325539    3.941697    0.997448
 H   -3.224349    0.736854    1.878462
 H   -1.734739   -0.003110    2.463463
 H   -2.055723   -1.919709    0.922698
 H   -3.419247   -0.850902   -0.877250
 H   -4.253599   -2.259399   -0.214342
 H   -4.762573   -0.631623    0.261496
 H   -3.953193   -2.951215    2.189785
 H   -4.455353   -1.344645    2.743367
 H   -2.902133   -2.018130    3.269463
