40 
6ez9_ligand_aiqm1.xyz
 O    3.420697    0.406518    1.438388
 C    3.193449    1.080456    0.466711
 O    2.296329    2.076820    0.444173
 C    3.864820    0.911258   -0.877934
 C    2.871982    0.778380   -2.037072
 C    1.999702   -0.490510   -1.983021
 C    2.840758   -1.743020   -2.078282
 O    3.502277   -1.804059   -3.247725
 O    2.927815   -2.581088   -1.221995
 N    1.210439   -0.587018   -0.772926
 C    0.173050    0.240745   -0.558544
 O   -0.301919    1.005754   -1.366998
 O   -0.288840    0.086605    0.706181
 C   -1.412310    0.879145    1.057921
 C   -0.953095    2.010782    1.960328
 O   -1.995911    2.758462    2.353455
 O    0.179118    2.253115    2.289165
 C   -2.434743   -0.020792    1.733886
 C   -2.881724   -1.184272    0.850280
 C   -3.501664   -0.699722   -0.458278
 C   -3.871020   -2.060302    1.612006
 H    1.807674    2.078705    1.283239
 H    4.482383    1.796531   -1.044928
 H    4.527346    0.047223   -0.814517
 H    2.201492    1.633602   -2.038594
 H    3.415126    0.767316   -2.982230
 H    1.329688   -0.464043   -2.844060
 H    4.021383   -2.618420   -3.227239
 H    1.539171   -1.175499   -0.026305
 H   -1.835026    1.350610    0.166698
 H   -1.635493    3.465621    2.904233
 H   -3.299739    0.586375    2.008780
 H   -2.000484   -0.415324    2.658044
 H   -1.994779   -1.781813    0.613429
 H   -2.786796   -0.169649   -1.089560
 H   -3.883645   -1.546434   -1.030843
 H   -4.344611   -0.032058   -0.256913
 H   -4.162853   -2.924927    1.015339
 H   -4.776012   -1.493350    1.847231
 H   -3.444234   -2.421821    2.548379
