60 
6f3d_ligand_dft.xyz
 C    4.255005   -1.298459    0.474192
 C    3.673219   -1.539328   -0.914792
 C    2.195125   -1.123250   -0.919390
 C    0.331190    2.080712   -0.397361
 C    1.000340    4.259678   -0.520658
 C   -1.143789    3.913798    0.068569
 C   -0.948946    2.491319   -0.039572
 C   -2.201566    1.906498    0.314087
 C   -3.001094    3.011556    0.589685
 C   -2.561838    0.448162    0.344018
 C   -2.593038   -0.182052   -1.062061
 C   -2.875752   -1.684022   -1.012146
 C   -4.184048   -1.985465   -0.273907
 C   -4.393983   -3.485260   -0.121185
 C    6.619988   -1.237100   -0.465982
 O   -3.490668   -4.261094    0.149704
 N   -5.681535   -3.913435   -0.286213
 C   -4.188568   -1.331753    1.122815
 C   -3.894307    0.167583    1.048614
 N   -2.392534    4.222363    0.450812
 N   -0.145686    4.803808   -0.185559
 N    1.317975    2.944730   -0.635316
 N    0.642925    0.707341   -0.536859
 C    2.030021    0.331605   -0.478794
 C    2.664006    0.563046    0.904026
 C    4.141093    0.158461    0.911282
 N    5.713407   -1.772880    0.592486
 C    5.828913   -3.256165    0.694638
 H    3.723455   -1.923252    1.201611
 H    3.769479   -2.589813   -1.213878
 H    4.206478   -0.927249   -1.652345
 H    1.624695   -1.786239   -0.252666
 H    1.780936   -1.250198   -1.922930
 H    1.824311    4.943432   -0.730787
 H   -4.042904    2.978060    0.902053
 H   -1.799223   -0.106880    0.926812
 H   -1.643212    0.005556   -1.574329
 H   -3.367267    0.333606   -1.646836
 H   -2.064406   -2.206584   -0.489045
 H   -2.917467   -2.105367   -2.024306
 H   -5.016150   -1.557211   -0.852227
 H    7.650472   -1.464952   -0.190058
 H    6.375407   -1.715960   -1.413267
 H    6.484729   -0.159521   -0.545882
 H   -5.894145   -4.872426   -0.057402
 H   -6.444846   -3.263909   -0.382100
 H   -3.424440   -1.830102    1.734690
 H   -5.154101   -1.510174    1.614053
 H   -4.700663    0.674984    0.500765
 H   -3.879684    0.598653    2.055879
 H    0.042168    0.126668    0.035252
 H    2.551898    0.986462   -1.186315
 H    2.115534   -0.011252    1.664142
 H    2.567056    1.623605    1.146973
 H    4.683954    0.813035    0.217589
 H    4.575300    0.295656    1.911864
 H    6.038240   -1.383249    1.481570
 H    5.463626   -3.700994   -0.230558
 H    6.875446   -3.524326    0.846833
 H    5.226959   -3.602173    1.535294
