60 
6f3d_ligand_ani-2x.xyz
 C   20.496768   42.988525   12.760088
 C   21.127917   44.378423   12.650679
 C   22.578963   44.258872   12.177578
 C   24.489295   43.164083    9.194040
 C   23.980575   42.821732    6.982647
 C   26.142109   42.715685    7.503001
 C   25.853959   42.997140    8.878264
 C   27.123864   43.028185    9.539175
 C   28.029089   42.752697    8.490148
 C   27.394348   43.377223   10.976368
 C   27.048634   44.844806   11.277553
 C   27.254729   45.181319   12.750185
 C   28.689287   44.875497   13.190352
 C   28.836713   45.090695   14.690255
 C   18.106196   43.855088   12.555593
 O   27.983376   44.722900   15.478737
 N   30.011680   45.650655   15.106633
 C   29.061964   43.418060   12.875607
 C   28.838545   43.088658   11.402819
 N   27.478599   42.562374    7.290050
 N   25.205474   42.622377    6.547779
 N   23.566586   43.090735    8.238098
 N   24.091941   43.432560   10.463663
 C   22.690877   43.500581   10.852281
 C   22.015721   42.121408   10.941468
 C   20.569513   42.255816   11.418249
 N   19.062580   42.980789   13.295346
 C   18.974226   43.258039   14.747917
 H   21.070559   42.411614   13.496677
 H   21.082463   44.897231   13.615074
 H   20.568183   44.988531   11.928603
 H   23.170386   43.719477   12.934387
 H   23.035849   45.249704   12.065766
 H   23.188000   42.762744    6.238286
 H   29.112655   42.683789    8.601701
 H   26.745070   42.745705   11.608217
 H   26.020561   45.057645   10.967154
 H   27.696746   45.477415   10.654210
 H   26.576748   44.591944   13.380764
 H   27.018524   46.235590   12.934885
 H   29.378649   45.538765   12.647550
 H   17.095513   43.703578   12.946426
 H   18.369982   44.907701   12.687193
 H   18.111167   43.618333   11.490320
 H   30.089152   45.875791   16.087069
 H   30.657370   46.090057   14.470478
 H   28.440929   42.765391   13.503885
 H   30.105430   43.230826   13.155861
 H   29.516291   43.691538   10.781348
 H   29.084437   42.037948   11.210647
 H   24.767342   43.222689   11.184474
 H   22.189122   44.063373   10.056100
 H   22.579354   41.484387   11.639278
 H   22.061944   41.643626    9.956443
 H   19.992990   42.812792   10.665724
 H   20.094459   41.271963   11.523206
 H   18.744019   42.006776   13.163639
 H   19.208893   44.306335   14.954064
 H   17.959801   43.051901   15.101014
 H   19.679986   42.627522   15.294684
