16 
6f4n_ligand_ani-2x.xyz
 C  -37.752428    8.680134  -47.666122
 O  -37.825756    7.641551  -48.492805
 O  -38.700983    9.209952  -47.152443
 C  -36.287016    9.136897  -47.435594
 O  -35.420123    8.540487  -48.043405
 C  -36.032019   10.251958  -46.464981
 C  -34.819330   11.085637  -46.857362
 C  -34.371530   12.003160  -45.733878
 O  -33.341265   12.825894  -46.038711
 O  -34.863937   12.026014  -44.638327
 H  -36.909888    7.426433  -48.758449
 H  -35.869326    9.814104  -45.472089
 H  -36.939097   10.858917  -46.377297
 H  -35.029116   11.692579  -47.748861
 H  -33.991191   10.416621  -47.125653
 H  -33.056497   12.671362  -46.950126
