40 
6f5l_ligand_ani-2x.xyz
 O    2.657046    1.751273   -0.706751
 C    3.436708    0.746911   -0.304355
 O    3.649001    0.469082    0.855061
 C    4.010112   -0.033216   -1.470117
 C    3.380830   -1.431678   -1.584742
 C    1.858344   -1.377280   -1.737835
 C    1.271703   -2.735185   -2.097332
 O    0.582545   -3.429129   -1.398845
 O    1.653907   -3.083955   -3.341801
 O    1.309247   -0.944342   -0.505641
 C    0.189035   -0.197394   -0.576535
 O   -0.483799   -0.059912   -1.576178
 N   -0.057168    0.360859    0.648692
 C   -1.034117    1.416300    0.765393
 C   -0.345677    2.742214    1.055429
 O   -1.211117    3.741452    1.231237
 O    0.854317    2.915609    1.111595
 C   -2.139111    1.109140    1.791085
 C   -2.777181   -0.272363    1.611029
 C   -3.426568   -0.437694    0.236066
 C   -3.801028   -0.514195    2.720198
 H    2.214784    2.141994    0.078647
 H    3.859036    0.537288   -2.392464
 H    5.086019   -0.139426   -1.297799
 H    3.623537   -2.015951   -0.691123
 H    3.799330   -1.948096   -2.453639
 H    1.591529   -0.666028   -2.528833
 H    1.260822   -3.955827   -3.513395
 H    0.765089    0.384596    1.236505
 H   -1.486016    1.514601   -0.228657
 H   -0.684119    4.540277    1.402750
 H   -2.902442    1.893105    1.719236
 H   -1.716474    1.176930    2.802707
 H   -1.978879   -1.021311    1.703031
 H   -4.196320    0.329047    0.072613
 H   -3.915340   -1.415736    0.160922
 H   -2.695512   -0.369675   -0.578482
 H   -4.242031   -1.514070    2.639663
 H   -4.617179    0.217663    2.659964
 H   -3.342863   -0.425978    3.712000
