40 
6f5l_ligand_aiqm1.xyz
 O    2.615106    1.810405   -0.548518
 C    3.422344    0.766740   -0.289696
 O    3.740010    0.431801    0.821465
 C    3.854370    0.067180   -1.556679
 C    3.339294   -1.375353   -1.626511
 C    1.823866   -1.445024   -1.750278
 C    1.329569   -2.855183   -2.019248
 O    0.610357   -3.506003   -1.316756
 O    1.811009   -3.290871   -3.202692
 O    1.277922   -0.984175   -0.525131
 C    0.222485   -0.138645   -0.626937
 O   -0.371787    0.081171   -1.655644
 N   -0.038580    0.391999    0.583599
 C   -1.028627    1.427965    0.757297
 C   -0.350761    2.738515    1.111648
 O   -1.189538    3.779082    1.018519
 O    0.799831    2.853778    1.460714
 C   -2.060546    1.057660    1.826387
 C   -2.754252   -0.278836    1.560973
 C   -3.459418   -0.302463    0.207635
 C   -3.748690   -0.566168    2.681971
 H    2.299675    2.169474    0.296088
 H    3.503734    0.632118   -2.419291
 H    4.945442    0.056758   -1.566657
 H    3.649378   -1.921399   -0.734344
 H    3.779041   -1.863979   -2.495002
 H    1.477220   -0.817522   -2.575264
 H    1.453503   -4.178115   -3.333544
 H    0.600520    0.178260    1.331648
 H   -1.523903    1.566852   -0.202014
 H   -0.691780    4.564627    1.280978
 H   -2.808171    1.853376    1.878342
 H   -1.558497    1.012864    2.799942
 H   -1.991770   -1.063422    1.566744
 H   -4.185201    0.514288    0.139700
 H   -4.008356   -1.237620    0.088898
 H   -2.764381   -0.219173   -0.629258
 H   -4.211564   -1.543156    2.545406
 H   -4.543760    0.184502    2.684696
 H   -3.265095   -0.552411    3.660114
