40 
6f5l_ligand_dft.xyz
 O   -1.254163   -2.503427   -0.442528
 C   -1.905211   -2.199786    0.684861
 O   -1.400554   -2.237270    1.784804
 C   -3.332978   -1.770612    0.400835
 C   -3.536941   -0.258211    0.592368
 C   -2.556304    0.580372   -0.233197
 C   -2.904636    2.061811   -0.236264
 O   -2.237523    2.943373    0.234942
 O   -4.087572    2.264977   -0.847690
 O   -1.289643    0.401011    0.366500
 C   -0.211510    0.356466   -0.445572
 O   -0.191162    0.731337   -1.598134
 N    0.830226   -0.175330    0.249122
 C    2.105706   -0.412900   -0.366396
 C    2.315495   -1.901610   -0.606186
 O    3.506912   -2.159326   -1.153317
 O    1.524470   -2.784945   -0.349702
 C    3.265341    0.202929    0.436979
 C    3.107258    1.709190    0.684559
 C    2.975151    2.497589   -0.621743
 C    4.289704    2.216463    1.513895
 H   -0.309882   -2.678433   -0.231863
 H   -3.599670   -2.059371   -0.619456
 H   -3.988036   -2.302903    1.096339
 H   -3.399261    0.001452    1.647114
 H   -4.560779    0.001777    0.309895
 H   -2.526441    0.242027   -1.275078
 H   -4.248683    3.221804   -0.824463
 H    0.613698   -0.599301    1.142354
 H    2.063438    0.051167   -1.357499
 H    3.554500   -3.120047   -1.287756
 H    4.200045    0.014775   -0.103278
 H    3.346272   -0.317553    1.401280
 H    2.189529    1.861402    1.266179
 H    3.822777    2.292791   -1.288898
 H    2.963476    3.573559   -0.419025
 H    2.050249    2.259547   -1.157201
 H    4.171903    3.279680    1.747469
 H    5.232515    2.096966    0.965576
 H    4.380189    1.671921    2.460619
