40 
6f5l_ligand_xtb.xyz
 O    2.629388    1.754995   -0.720036
 C    3.345535    0.723186   -0.286667
 O    3.473794    0.439274    0.874462
 C    3.984568   -0.028986   -1.442628
 C    3.414398   -1.446415   -1.550770
 C    1.894949   -1.412814   -1.742368
 C    1.321346   -2.794000   -2.035974
 O    0.494623   -3.355184   -1.378147
 O    1.856164   -3.313819   -3.146210
 O    1.325886   -0.906941   -0.549490
 C    0.263656   -0.080919   -0.667718
 O   -0.307061    0.170613   -1.698493
 N   -0.053958    0.414607    0.548899
 C   -1.054837    1.433343    0.718444
 C   -0.397537    2.770634    1.015512
 O   -1.273930    3.730570    1.284653
 O    0.794021    2.962559    1.005232
 C   -2.072711    1.058647    1.804510
 C   -2.767622   -0.280774    1.532063
 C   -3.554184   -0.254076    0.224188
 C   -3.693373   -0.609928    2.701837
 H    2.163532    2.218975    0.010979
 H    3.803118    0.529312   -2.360990
 H    5.057733   -0.092247   -1.258307
 H    3.625453   -1.988849   -0.627722
 H    3.868037   -1.968776   -2.392572
 H    1.617444   -0.757755   -2.582193
 H    1.467004   -4.184328   -3.330599
 H    0.576518    0.209197    1.309748
 H   -1.562290    1.534053   -0.249373
 H   -0.822235    4.574143    1.453333
 H   -2.817107    1.853590    1.866016
 H   -1.553350    1.002468    2.764345
 H   -2.003193   -1.060728    1.460301
 H   -4.245710    0.586138    0.209772
 H   -4.128416   -1.171173    0.119065
 H   -2.890259   -0.180317   -0.632778
 H   -4.163119   -1.578506    2.552032
 H   -4.476086    0.140779    2.789167
 H   -3.140190   -0.640649    3.637776
