28 
6f5w_ligand_xtb.xyz
 O   -2.819840   -0.405703   -0.680907
 C   -1.876390    0.400210   -0.026352
 C   -0.746035    0.792680   -0.990802
 C   -1.295467    1.398570   -2.272786
 O    0.045194   -0.330283   -1.367900
 C   -1.285162   -0.344667    1.178086
 O   -2.347291   -0.770735    2.001182
 C   -0.477579   -1.548529    0.675760
 O    0.094538   -2.253351    1.746303
 C    0.590443   -1.049882   -0.310375
 O    1.504168   -0.307352    0.455839
 C    2.674806    0.071016   -0.262972
 C    3.468906    0.959299    0.561399
 C    4.096150    1.690983    1.270305
 H   -3.374037   -0.792041    0.011184
 H   -2.358822    1.323816    0.335279
 H   -0.105852    1.518877   -0.463849
 H   -0.480451    1.605751   -2.959778
 H   -1.826454    2.318473   -2.048107
 H   -1.977408    0.688927   -2.730017
 H   -0.613138    0.326524    1.736596
 H   -2.011424   -1.490777    2.551344
 H   -1.148218   -2.241655    0.157608
 H    0.853270   -1.739557    2.056121
 H    1.100266   -1.906357   -0.784404
 H    3.258988   -0.828529   -0.516691
 H    2.392107    0.580210   -1.195298
 H    4.664433    2.334182    1.873432
