28 
6f5w_ligand_ani-2x.xyz
 O   -2.811616   -0.452213   -0.708943
 C   -1.896636    0.380725   -0.036726
 C   -0.762938    0.768319   -0.984902
 C   -1.267444    1.365725   -2.280538
 O    0.038639   -0.366736   -1.337316
 C   -1.321037   -0.345746    1.167600
 O   -2.403283   -0.812052    1.951213
 C   -0.473604   -1.529901    0.714861
 O    0.081918   -2.189181    1.835158
 C    0.600862   -1.056868   -0.257667
 O    1.512624   -0.273683    0.471522
 C    2.605853    0.183673   -0.311355
 C    3.505312    0.945925    0.557271
 C    4.246557    1.571309    1.268170
 H   -3.356493   -0.850710   -0.013023
 H   -2.393626    1.306050    0.306570
 H   -0.134035    1.503166   -0.453610
 H   -0.418909    1.653485   -2.906962
 H   -1.879076    2.254031   -2.084576
 H   -1.877922    0.634657   -2.816887
 H   -0.693473    0.349675    1.748966
 H   -2.033541   -1.497327    2.528892
 H   -1.121759   -2.247414    0.206359
 H    0.834974   -1.644726    2.111618
 H    1.138677   -1.917313   -0.683580
 H    3.128360   -0.673825   -0.761177
 H    2.252768    0.815194   -1.137563
 H    4.898549    2.125861    1.906823
