28 
6f5w_ligand_aiqm1.xyz
 O   -2.809773   -0.548889   -0.743329
 C   -1.943075    0.338410   -0.060179
 C   -0.819207    0.777360   -0.994714
 C   -1.311698    1.348584   -2.299402
 O    0.033294   -0.326723   -1.339917
 C   -1.344563   -0.339230    1.161144
 O   -2.418951   -0.819415    1.959182
 C   -0.449052   -1.486520    0.727881
 O    0.131350   -2.120650    1.850048
 C    0.604703   -0.993143   -0.254846
 O    1.486353   -0.160622    0.478282
 C    2.612919    0.242271   -0.294168
 C    3.585161    0.889161    0.584546
 C    4.400084    1.423945    1.295152
 H   -3.378403   -0.930097   -0.067077
 H   -2.495674    1.226143    0.269143
 H   -0.227199    1.525000   -0.450482
 H   -0.464925    1.666355   -2.907522
 H   -1.957632    2.208515   -2.119414
 H   -1.875186    0.591456   -2.841480
 H   -0.751383    0.386320    1.729018
 H   -2.046756   -1.476268    2.553738
 H   -1.050363   -2.237744    0.217002
 H    0.839497   -1.551275    2.166387
 H    1.165852   -1.830526   -0.682341
 H    3.067277   -0.629477   -0.776489
 H    2.300163    0.932194   -1.082424
 H    5.116889    1.894964    1.922461
