68 
6f6r_ligand_xtb.xyz
 C   -2.901041    0.486753    2.482526
 C   -4.276248    2.409681    3.127738
 N   -3.144879    3.185982    3.062803
 C   -5.291083    0.212205    2.831990
 C   -5.306100   -0.703649    4.050912
 C   -5.418418   -0.613685    1.536483
 O   -5.359785    2.860750    3.430447
 C   -3.257511    4.593447    3.384609
 O   -2.804966   -0.717781    2.260236
 C   -1.940312    2.704050    2.642634
 C   -1.778834    1.395593    2.343741
 N   -4.099713    1.064635    2.820833
 N   -4.950919    0.009519    0.433785
 O   -5.971143   -1.689870    1.515736
 N   -0.637475    0.808826    1.818929
 C    0.426232    1.458617    1.261474
 C    1.311192    0.585481    0.449601
 O    0.638834    2.645271    1.424286
 C    2.664588    0.909122    0.372562
 C    3.535387    0.159762   -0.388583
 C    3.061079   -0.925147   -1.129700
 C    1.703310   -1.250792   -1.051253
 C    0.838407   -0.509928   -0.275001
 N    3.880759   -1.719993   -1.908514
 C    5.101591   -1.445031   -2.463358
 C    5.566124   -0.123305   -2.731442
 N    6.718995    0.100560   -3.282809
 N    5.800012   -2.497957   -2.836366
 C    7.004651   -2.286029   -3.404573
 C    7.489858   -0.965036   -3.605959
 C    8.758353   -0.768308   -4.178878
 C    9.512581   -1.850251   -4.544292
 C    9.030240   -3.155605   -4.355823
 C    7.799929   -3.378243   -3.800357
 C   -4.786381   -0.658186   -0.845125
 C   -3.804537   -1.844645   -0.743705
 O   -1.941049    0.692942   -2.267358
 C   -2.914480    0.902564   -1.394253
 C   -4.249813    0.364825   -1.856979
 O   -2.753999    1.523480   -0.366458
 O   -2.524643   -1.426525   -0.343528
 H   -6.149181    0.893617    2.874907
 H   -6.173816   -1.353269    3.986287
 H   -5.356841   -0.116330    4.964175
 H   -4.413188   -1.323254    4.062546
 H   -2.598374    4.840182    4.217134
 H   -4.290362    4.793756    3.663629
 H   -2.988531    5.199241    2.519233
 H   -1.135401    3.413050    2.533693
 H   -4.397097    0.850614    0.535499
 H   -0.746013   -0.187770    1.664841
 H    3.024013    1.754317    0.939439
 H    4.587510    0.395805   -0.385722
 H    1.328182   -2.092677   -1.614189
 H   -0.208011   -0.780649   -0.271387
 H    3.588631   -2.679992   -2.040754
 H    4.946387    0.740290   -2.534784
 H    9.106065    0.243813   -4.315497
 H   10.488478   -1.707360   -4.984058
 H    9.645896   -3.991414   -4.654685
 H    7.417125   -4.374416   -3.642237
 H   -5.760907   -1.043580   -1.166846
 H   -3.693624   -2.301452   -1.730515
 H   -4.213796   -2.584517   -0.049212
 H   -1.091524    1.024625   -1.933486
 H   -4.128458   -0.099322   -2.833761
 H   -4.948120    1.200602   -1.929710
 H   -2.568134   -1.257408    0.618053
