43 
6f8j_ligand_dft.xyz
 C    4.986390   -0.333059   -0.768718
 C    6.362838   -0.396986   -0.586247
 C    6.878392   -0.969768    0.570157
 N    6.106161   -1.471964    1.537386
 C    4.791789   -1.410766    1.363699
 C    4.171895   -0.856247    0.237027
 N    2.769697   -0.873959    0.190900
 C    1.952904   -0.281110   -0.737451
 O    2.336156    0.289141   -1.740073
 C    0.487019   -0.491497   -0.458259
 C   -0.064517   -1.760674   -0.590069
 N   -1.366837   -2.032234   -0.529771
 C   -2.198529   -1.008700   -0.321475
 N   -3.533720   -1.395397   -0.269566
 C   -4.656009   -0.579588   -0.192359
 O   -4.606334    0.639621   -0.150774
 N   -5.833462   -1.281653   -0.194091
 C   -7.088567   -0.584004    0.045141
 C   -7.347842   -0.288342    1.520103
 C   -1.768723    0.308931   -0.134127
 C   -0.408007    0.557397   -0.212080
 N    0.067362    1.864634   -0.005429
 N    1.257336    2.056921    0.605780
 C    1.396288    3.369474    0.660789
 C    0.294125    4.042915    0.085635
 C   -0.542651    3.039450   -0.329881
 H    4.545148    0.110167   -1.650529
 H    7.030920   -0.000008   -1.343713
 H    7.951762   -1.030365    0.732345
 H    4.181047   -1.826292    2.166617
 H    2.309317   -1.196285    1.030296
 H    0.587089   -2.610981   -0.781360
 H   -3.648760   -2.384468   -0.444533
 H   -5.805618   -2.260258    0.052032
 H   -7.889536   -1.198347   -0.377663
 H   -7.049870    0.346436   -0.524632
 H   -7.380458   -1.211445    2.109561
 H   -6.556890    0.353195    1.918376
 H   -8.305635    0.227313    1.644275
 H   -2.485654    1.086985    0.085032
 H    2.281598    3.791572    1.115822
 H    0.141833    5.106273   -0.018005
 H   -1.491409    3.057437   -0.844908
