43 
6f8j_ligand_ani-2x.xyz
 C   59.753679   26.951269   68.033054
 C   59.414568   26.329204   69.228559
 C   60.077461   26.678792   70.398752
 N   61.044157   27.598548   70.437917
 C   61.370835   28.191924   69.296410
 C   60.761664   27.913578   68.065924
 N   61.197777   28.618762   66.932492
 C   60.725542   28.502817   65.643491
 O   59.768094   27.820523   65.337860
 C   61.517581   29.309350   64.647089
 C   61.797354   30.654616   64.876768
 N   62.337633   31.482381   63.987343
 C   62.637985   30.976882   62.785536
 N   63.195720   31.914230   61.911835
 C   63.499139   31.745159   60.566302
 O   63.320874   30.707624   59.947588
 N   63.998329   32.888195   59.981551
 C   64.479989   32.826666   58.607658
 C   65.836459   32.144760   58.452559
 C   62.433847   29.647143   62.434905
 C   61.900257   28.806304   63.396437
 N   61.771026   27.429980   63.097076
 N   62.031367   26.500248   64.031974
 C   61.753856   25.347972   63.436826
 C   61.331997   25.526757   62.098297
 C   61.369332   26.886019   61.915999
 H   59.261401   26.707542   67.100072
 H   58.633521   25.573864   69.246958
 H   59.825118   26.203580   71.344362
 H   62.160973   28.940552   69.358288
 H   62.031761   29.173475   67.057004
 H   61.532511   31.111476   65.829799
 H   63.230116   32.839754   62.315525
 H   64.453460   33.556013   60.586383
 H   64.512909   33.852656   58.226151
 H   63.725718   32.284275   58.032792
 H   66.612331   32.661231   59.029264
 H   65.776113   31.109278   58.800003
 H   66.141643   32.136135   57.400742
 H   62.713311   29.296603   61.449839
 H   61.872044   24.428513   63.991639
 H   61.044671   24.771567   61.381880
 H   61.126979   27.521382   61.075597
