59 
6f8x_ligand_aiqm1.xyz
 C   -0.156454    0.336178   -0.288071
 C    0.764828   -0.396990   -1.141127
 C    1.959601   -2.097642   -2.181793
 C    3.120914   -2.164097    0.036701
 C    5.735404   -0.233869   -1.432738
 C    3.374199    0.562191    1.474581
 C   -2.528428    3.649399    2.643541
 O   -2.817268    2.332589    2.209496
 C   -1.915203    1.736298    1.390376
 C   -2.230765    0.426590    0.965965
 O   -3.367589   -0.195296    1.399241
 C   -4.575252    0.346596    0.842850
 C   -5.762017   -0.452695    1.340333
 C   -6.886167   -0.047043    0.375701
 C   -6.179530    0.351818   -0.948716
 C   -4.672180    0.219069   -0.672771
 C   -1.351593   -0.252662    0.139699
 C    0.144015    1.635710    0.116942
 C   -0.731425    2.329346    0.954794
 C    0.589560   -1.825741   -1.583909
 C    2.889738   -2.911061   -1.266037
 O    2.230893   -2.179045    0.883155
 N    4.239753   -1.417472    0.208902
 O    2.528545   -0.791590   -2.389352
 N    1.852723    0.135368   -1.566539
 C    4.314056   -0.643569    1.450744
 C    5.450731   -1.482333   -0.604327
 O    6.150110    0.846716   -0.625019
 O    3.622678    1.462970    0.393757
 H    1.911227   -2.578958   -3.157415
 H    4.864302    0.021484   -2.037916
 H    6.569064   -0.461039   -2.102165
 H    3.555994    1.123472    2.390833
 H    2.338935    0.220412    1.471765
 H   -2.468557    4.338731    1.797773
 H   -1.594512    3.684939    3.207746
 H   -3.352282    3.935943    3.289196
 H   -4.675476    1.397348    1.130820
 H   -5.526304   -1.515145    1.235402
 H   -5.992346   -0.254654    2.386989
 H   -7.431185    0.806241    0.779627
 H   -7.606431   -0.850386    0.233590
 H   -6.428832    1.379837   -1.211391
 H   -6.491294   -0.275185   -1.782840
 H   -4.068625    0.958595   -1.202605
 H   -4.315401   -0.777452   -0.951104
 H   -1.608663   -1.265229   -0.150381
 H    1.061823    2.104048   -0.206907
 H   -0.474261    3.331694    1.263135
 H    0.363366   -2.478108   -0.746500
 H   -0.211378   -1.906699   -2.320495
 H    3.800020   -3.137762   -1.814848
 H    2.391648   -3.847295   -1.017296
 H    4.057382   -1.295992    2.288591
 H    5.342450   -0.305602    1.565018
 H    6.296846   -1.650586    0.070295
 H    5.393922   -2.347113   -1.263945
 H    5.354190    1.248855   -0.250948
 H    3.150304    1.115575   -0.383208
