59 
6f8x_ligand_xtb.xyz
 C   -0.077059    0.366695   -0.548560
 C    0.903575   -0.405743   -1.276269
 C    2.153643   -2.146049   -2.207513
 C    3.139763   -2.293790    0.067548
 C    5.770470   -0.260672   -1.219435
 C    3.181768    0.445197    1.449723
 C   -2.696511    3.882864    1.925289
 O   -2.905655    2.519241    1.647043
 C   -1.977138    1.845806    0.903356
 C   -2.229372    0.494328    0.584342
 O   -3.316257   -0.239770    0.936519
 C   -4.562393    0.362116    1.262688
 C   -5.559381   -0.789416    1.471422
 C   -6.342933   -0.870291    0.164242
 C   -6.498457    0.596230   -0.225347
 C   -5.130177    1.200079    0.097433
 C   -1.270449   -0.214972   -0.127802
 C    0.144082    1.712235   -0.258013
 C   -0.793704    2.427139    0.456621
 C    0.756869   -1.862121   -1.640897
 C    3.020340   -3.010576   -1.270603
 O    2.220760   -2.365906    0.870510
 N    4.218689   -1.516919    0.315766
 O    2.764438   -0.852849   -2.342577
 N    2.016992    0.085254   -1.670793
 C    4.168133   -0.731279    1.543690
 C    5.486001   -1.528775   -0.386248
 O    6.091465    0.855144   -0.437371
 O    3.484169    1.337405    0.403071
 H    2.131144   -2.595066   -3.205316
 H    4.920044   -0.061751   -1.880994
 H    6.651964   -0.462891   -1.835824
 H    3.247475    1.019369    2.378135
 H    2.162901    0.059688    1.348738
 H   -2.631874    4.476565    1.008114
 H   -1.795918    4.038014    2.527045
 H   -3.568115    4.198047    2.497529
 H   -4.452029    0.957531    2.173575
 H   -5.026448   -1.708668    1.704868
 H   -6.228823   -0.550194    2.297551
 H   -7.297555   -1.380963    0.279936
 H   -5.753982   -1.394464   -0.589071
 H   -7.268161    1.061525    0.392718
 H   -6.770675    0.730056   -1.271283
 H   -5.193921    2.255969    0.353260
 H   -4.462644    1.097632   -0.760336
 H   -1.489202   -1.249801   -0.335407
 H    1.052497    2.189586   -0.585499
 H   -0.587165    3.460826    0.681085
 H    0.551412   -2.461319   -0.754590
 H   -0.037436   -2.005796   -2.374633
 H    3.975748   -3.200273   -1.751557
 H    2.506940   -3.957768   -1.101042
 H    3.840692   -1.375257    2.366484
 H    5.169379   -0.352991    1.747846
 H    6.283040   -1.629798    0.359200
 H    5.538829   -2.391783   -1.047568
 H    5.266592    1.203078   -0.046503
 H    3.103420    0.989990   -0.427094
