55 
6f94_ligand_aiqm1.xyz
 C   58.875265   23.557397   60.073188
 C   60.056563   24.425202   60.414909
 C   60.036785   25.211085   61.568180
 C   61.185186   24.469094   59.594774
 C   62.267967   25.271503   59.937698
 C   62.252284   26.043048   61.096422
 C   61.116501   26.030947   61.913844
 N   61.036804   26.756063   63.121427
 C   61.417635   28.043243   63.365476
 C   61.966952   28.884774   62.386737
 C   62.295982   30.185404   62.740717
 N   62.838061   31.103408   61.849150
 C   63.166169   30.914312   60.516911
 O   63.036597   29.855610   59.925649
 N   63.638347   32.044656   59.915229
 C   64.186089   31.977918   58.567955
 C   65.654216   31.572131   58.543469
 N   62.116947   30.714417   63.960861
 C   61.605753   29.899232   64.883288
 C   61.258529   28.570736   64.676231
 C   60.681156   27.749687   65.774768
 O   59.871117   26.849587   65.574750
 N   61.134817   28.077450   67.023615
 C   60.819829   27.475999   68.263384
 C   61.707944   27.691285   69.319887
 C   61.468825   27.166013   70.590426
 C   62.447547   27.412520   71.706520
 C   60.311049   26.414385   70.791674
 C   59.424643   26.200816   69.740197
 C   59.659067   26.726296   68.472305
 H   58.657609   22.859321   60.883351
 H   57.980554   24.162374   59.914512
 H   59.064037   22.982141   59.165974
 H   59.169718   25.181908   62.223233
 H   61.216421   23.871941   58.691703
 H   63.142578   25.299342   59.300481
 H   63.106841   26.652565   61.356586
 H   60.409566   26.378883   63.816751
 H   62.098589   28.560038   61.372641
 H   62.958956   32.016367   62.256452
 H   63.908093   32.820797   60.493176
 H   64.052203   32.956344   58.102488
 H   63.585828   31.254764   58.022188
 H   66.268377   32.278689   59.105820
 H   65.778243   30.581489   58.978227
 H   66.020402   31.544921   57.516980
 H   61.431407   30.360116   65.850808
 H   61.919827   28.703403   67.041830
 H   62.605434   28.281367   69.147645
 H   63.429090   27.002136   71.461865
 H   62.575386   28.481936   71.884859
 H   62.104875   26.949768   72.632395
 H   60.105120   25.996528   71.769322
 H   58.530329   25.614087   69.908973
 H   58.969689   26.546953   67.663100
