55 
6f94_ligand_ani-2x.xyz
 C   59.100259   23.489844   60.178406
 C   60.227287   24.414217   60.567534
 C   60.070791   25.311342   61.622604
 C   61.446823   24.386975   59.889100
 C   62.476765   25.241466   60.267983
 C   62.313189   26.142350   61.312809
 C   61.092149   26.190157   61.992158
 N   60.847651   27.030614   63.081348
 C   61.365859   28.276129   63.373017
 C   61.938694   29.098057   62.407430
 C   62.412060   30.348970   62.791767
 N   63.018276   31.232691   61.895935
 C   63.134687   31.112200   60.516832
 O   62.704089   30.173563   59.865556
 N   63.766709   32.191523   59.938041
 C   64.074017   32.149829   58.514393
 C   65.258294   31.255691   58.157719
 N   62.341535   30.824988   64.038886
 C   61.787166   30.030076   64.950251
 C   61.274521   28.760892   64.704134
 C   60.616823   27.953242   65.777019
 O   59.693704   27.177651   65.539571
 N   61.144126   28.115528   67.030481
 C   60.795114   27.440391   68.221619
 C   61.671277   27.558197   69.303182
 C   61.400878   26.946090   70.524889
 C   62.364406   27.084361   71.676784
 C   60.222861   26.209970   70.653681
 C   59.348238   26.096484   69.577968
 C   59.618050   26.703082   68.357923
 H   58.799953   22.857979   61.022042
 H   58.216063   24.053998   59.859844
 H   59.391490   22.832416   59.354745
 H   59.129194   25.338762   62.172587
 H   61.589726   23.690601   59.066089
 H   63.426408   25.213624   59.739805
 H   63.128006   26.800056   61.602274
 H   60.156494   26.718094   63.758616
 H   61.988936   28.823368   61.361879
 H   63.260069   32.110517   62.334552
 H   64.402302   32.720116   60.517458
 H   64.250787   33.180018   58.187442
 H   63.174804   31.792079   58.007447
 H   66.174227   31.584352   58.662109
 H   65.049804   30.223300   58.453146
 H   65.438396   31.273286   57.077529
 H   61.713372   30.467457   65.946005
 H   62.000665   28.645916   67.085852
 H   62.586399   28.139689   69.193426
 H   63.349464   26.679002   71.418814
 H   62.503723   28.136468   71.950344
 H   62.005197   26.552954   72.562099
 H   59.990631   25.724984   71.599119
 H   58.432631   25.519097   69.686455
 H   58.938762   26.607697   67.522305
