52 
6f96_ligand_xtb.xyz
 C   59.849660   24.274552   57.850513
 O   60.996596   24.977286   58.258501
 C   60.960715   25.644966   59.447602
 C   59.875641   25.672725   60.316487
 C   59.953567   26.391299   61.495273
 C   62.124475   26.329619   59.799541
 C   62.201299   27.040049   60.976838
 C   61.102470   27.099289   61.834585
 N   61.122007   27.771559   63.055650
 C   61.759369   28.912738   63.396258
 C   62.350682   29.761694   62.452724
 C   62.967979   30.920895   62.881803
 N   63.593724   31.820327   62.038291
 C   63.816815   31.711114   60.676978
 O   63.479271   30.762968   60.004673
 N   64.439361   32.807276   60.161472
 C   64.881320   32.853531   58.785655
 C   66.398510   32.747562   58.669444
 N   62.997573   31.309333   64.165080
 C   62.427291   30.524628   65.052455
 C   61.817313   29.305779   64.767969
 C   61.200837   28.474224   65.816215
 O   60.294377   27.680345   65.592054
 N   61.737282   28.642558   67.064301
 C   61.351146   28.056900   68.265942
 C   60.261249   27.199812   68.408636
 C   59.982316   26.690954   69.665433
 C   60.791434   27.048451   70.732410
 N   61.826717   27.863159   70.605379
 C   62.096034   28.350333   69.413259
 H   59.596064   23.473525   58.553083
 H   58.988696   24.941084   57.733758
 H   60.099016   23.838075   56.884496
 H   58.964726   25.141417   60.090207
 H   59.107341   26.406013   62.166821
 H   62.967768   26.284670   59.129444
 H   63.124472   27.531071   61.238286
 H   60.532724   27.389097   63.794255
 H   62.297304   29.544987   61.401455
 H   63.937430   32.632818   62.532026
 H   64.786529   33.524931   60.777071
 H   64.532182   33.786680   58.331416
 H   64.402231   32.011522   58.282435
 H   66.883066   33.574853   59.184982
 H   66.743660   31.813502   59.105629
 H   66.692337   32.772656   57.624036
 H   62.435464   30.926657   66.059242
 H   62.539646   29.252224   67.136916
 H   59.656514   26.943664   67.554842
 H   59.145551   26.025164   69.809116
 H   60.611405   26.673844   71.730677
 H   62.951845   29.013923   69.358387
