52 
6f96_ligand_aiqm1.xyz
 C   59.893387   24.527140   57.726685
 O   61.107395   25.115334   58.156114
 C   61.099569   25.715188   59.380588
 C   59.999381   25.768186   60.235179
 C   60.115155   26.422073   61.463271
 C   62.302205   26.302871   59.778105
 C   62.413114   26.934391   61.007580
 C   61.307596   27.020950   61.862784
 N   61.373959   27.627136   63.139575
 C   61.853355   28.866542   63.441665
 C   62.440263   29.716920   62.491560
 C   62.884942   30.963944   62.904281
 N   63.474182   31.884370   62.047859
 C   63.732459   31.750971   60.692491
 O   63.481235   30.747460   60.046982
 N   64.283747   32.869153   60.139073
 C   64.770552   32.838267   58.766647
 C   66.189679   32.296740   58.652531
 N   62.787176   31.433932   64.158975
 C   62.243081   30.610505   65.052612
 C   61.781764   29.327126   64.785342
 C   61.180459   28.491264   65.853792
 O   60.312576   27.649730   65.639873
 N   61.676854   28.722989   67.110413
 C   61.321789   28.093590   68.316979
 C   60.174683   27.318679   68.494381
 C   59.945445   26.784187   69.759094
 C   60.841393   27.034543   70.790962
 N   61.941702   27.778616   70.630881
 C   62.160700   28.286975   69.419332
 H   59.582310   23.721975   58.397292
 H   59.094399   25.269516   57.658065
 H   60.092169   24.118267   56.740174
 H   59.054802   25.318334   59.967827
 H   59.257201   26.454404   62.126463
 H   63.149714   26.255670   59.108066
 H   63.358285   27.377134   61.294919
 H   60.754558   27.247402   63.839994
 H   62.516678   29.440607   61.457421
 H   63.688040   32.757579   62.501558
 H   64.647999   33.578902   60.749650
 H   64.715241   33.853347   58.368900
 H   64.081961   32.212878   58.204676
 H   66.891189   32.903093   59.229441
 H   66.232310   31.272396   59.019405
 H   66.511814   32.301966   57.611126
 H   62.137652   31.028681   66.049378
 H   62.489210   29.311093   67.154540
 H   59.498446   27.134490   67.674039
 H   59.070642   26.173624   69.942015
 H   60.678862   26.627904   71.780917
 H   63.059722   28.889268   69.308530
