48 
6fc6_ligand_dft.xyz
 N   -1.585192    2.315154   -0.911899
 C   -2.903558    1.693191   -0.523926
 C   -2.443544    0.696605    0.557495
 O   -1.876293    1.150433    1.535860
 C   -3.595350    1.144303   -1.758477
 N   -2.535060   -0.629721    0.284332
 C   -1.391417   -1.431643    0.669764
 C   -0.167170   -0.888367   -0.111715
 O   -0.298584   -0.088807   -1.042399
 C   -1.666440   -2.904105    0.337884
 O   -2.005634   -2.897381   -1.038483
 C   -2.767243   -3.497542    1.206601
 N    1.030518   -1.329921    0.289825
 C    2.263874   -0.920443   -0.357719
 C    3.249368   -2.074486   -0.478899
 O    4.273789   -1.998288   -1.101824
 C    2.955600    0.254346    0.371284
 C    2.142436    1.527869    0.393420
 C    1.350840    1.853934    1.493797
 C    2.198341    2.422798   -0.682269
 C    0.662416    3.066328    1.547663
 C    1.512972    3.631902   -0.638725
 C    0.752134    3.965775    0.486424
 O    2.871819   -3.161619    0.218473
 H   -1.673548    3.011614   -1.654256
 H   -0.939914    1.547926   -1.206275
 H   -1.125173    2.753871   -0.096561
 H   -3.494772    2.474929   -0.042377
 H   -3.885150    1.953195   -2.435774
 H   -2.947493    0.451621   -2.305785
 H   -4.512152    0.622688   -1.470240
 H   -2.891956   -0.905049   -0.623116
 H   -1.212118   -1.316573    1.741696
 H   -0.733009   -3.465705    0.494954
 H   -2.278458   -3.784965   -1.300673
 H   -2.943419   -4.543263    0.933512
 H   -2.486103   -3.475805    2.263923
 H   -3.701283   -2.943006    1.082475
 H    1.096001   -2.010725    1.034009
 H    2.008668   -0.609278   -1.373888
 H    3.184839   -0.057143    1.396894
 H    3.910770    0.427222   -0.133603
 H    1.289343    1.169909    2.335421
 H    2.813355    2.183683   -1.546378
 H    0.072583    3.308976    2.425457
 H    1.604385    4.334475   -1.462156
 H    0.261546    4.933749    0.547426
 H    3.570869   -3.828415    0.110880
