41 
6fe5_ligand_xtb.xyz
 O    2.266642   -0.120381   -2.201360
 C    2.814350    0.417002   -1.126585
 O    2.501755    1.499462   -0.690332
 C    3.864095   -0.487252   -0.509707
 C    3.239719   -1.812875   -0.057473
 C    2.318403   -1.631045    1.172424
 C    3.156072   -1.347589    2.404013
 O    3.203093   -0.293978    2.977618
 O    3.873624   -2.410985    2.772894
 N    1.382327   -0.553812    0.991021
 C    0.273667   -0.694054    0.210116
 O   -0.187042   -1.773616   -0.106661
 N   -0.315513    0.495880   -0.126865
 C   -1.504731    0.508718   -0.936198
 C   -1.210560    0.945205   -2.357543
 O   -2.308658    1.126824   -3.083191
 O   -0.105072    1.107784   -2.819016
 C   -2.612259    1.367569   -0.307496
 C   -2.966380    0.929373    1.117936
 C   -3.501370   -0.499853    1.153347
 C   -3.996910    1.895988    1.698780
 H    1.511959    0.423396   -2.529165
 H    4.334274    0.034776    0.324626
 H    4.614398   -0.694392   -1.274188
 H    4.020640   -2.531183    0.193713
 H    2.640043   -2.218336   -0.873339
 H    1.758808   -2.560948    1.325064
 H    4.413129   -2.204077    3.553163
 H    1.719344    0.365974    1.235629
 H    0.233677    1.341341   -0.077036
 H   -1.835056   -0.538304   -0.997479
 H   -2.081430    1.383714   -3.992177
 H   -2.276166    2.407270   -0.287194
 H   -3.497916    1.307837   -0.940943
 H   -2.059055    0.975838    1.728653
 H   -4.341624   -0.610202    0.470777
 H   -2.730224   -1.215111    0.880772
 H   -3.842039   -0.744355    2.156644
 H   -4.916027    1.864191    1.117448
 H   -4.232216    1.628219    2.725761
 H   -3.619872    2.916185    1.690148
