41 
6fe5_ligand_ani-2x.xyz
 O    2.233982   -0.057223   -2.197093
 C    2.834532    0.454655   -1.129593
 O    2.562824    1.550544   -0.670671
 C    3.849875   -0.497532   -0.535546
 C    3.193987   -1.798762   -0.039277
 C    2.277553   -1.607484    1.194413
 C    3.134952   -1.391973    2.423870
 O    3.367602   -0.317703    2.922615
 O    3.666551   -2.540787    2.868416
 N    1.369484   -0.499451    1.064260
 C    0.229919   -0.640137    0.310347
 O   -0.285837   -1.733195    0.098245
 N   -0.287856    0.552517   -0.154826
 C   -1.476399    0.545684   -0.974332
 C   -1.174184    1.031946   -2.384290
 O   -2.269494    1.117532   -3.140781
 O   -0.077127    1.304970   -2.830030
 C   -2.642224    1.329860   -0.345137
 C   -2.957901    0.922868    1.098005
 C   -3.364894   -0.547437    1.209241
 C   -4.056834    1.826022    1.658487
 H    1.516562    0.556034   -2.476909
 H    4.372520    0.026083    0.269095
 H    4.582695   -0.741661   -1.312298
 H    3.968237   -2.528014    0.220079
 H    2.594352   -2.225167   -0.849150
 H    1.683477   -2.516149    1.328442
 H    4.231398   -2.308286    3.624068
 H    1.743655    0.426869    1.221783
 H    0.363676    1.323842   -0.254544
 H   -1.763956   -0.507485   -1.077058
 H   -1.978308    1.424007   -4.016362
 H   -2.405708    2.402770   -0.370384
 H   -3.527926    1.193350   -0.976769
 H   -2.048060    1.072801    1.694255
 H   -4.250129   -0.754066    0.592165
 H   -2.562087   -1.225021    0.895292
 H   -3.621452   -0.794196    2.245792
 H   -4.986291    1.706285    1.086464
 H   -4.274054    1.581174    2.704245
 H   -3.767215    2.882117    1.612072
