30 
6ffi_ligand_dft.xyz
 C    3.156065   -1.594725   -0.000438
 N    2.905236    0.803168    0.000294
 C   -3.694877   -2.077482    0.000290
 C   -4.465254   -0.925526    0.000228
 C   -3.846268    0.330321    0.000092
 C   -2.457075    0.420315    0.000007
 C   -4.112116    2.687256   -0.000555
 C    2.378417   -0.429965   -0.000018
 C    4.236457    0.923132    0.000218
 C    5.087960   -0.184597   -0.000132
 C    4.536013   -1.459908   -0.000476
 C    4.772041    2.330561    0.000452
 C    0.946515   -0.530535    0.000002
 C   -0.257503   -0.647658   -0.000009
 C   -1.684151   -0.752745    0.000024
 C   -2.304176   -2.004731    0.000221
 O   -4.683239    1.397539   -0.000014
 H    2.676255   -2.566946   -0.000695
 H   -4.183808   -3.046913    0.000414
 H   -5.549280   -0.968166    0.000280
 H   -1.947086    1.375812   -0.000091
 H   -3.499294    2.856384    0.894054
 H   -3.499299    2.855651   -0.895292
 H   -4.949348    3.386033   -0.000837
 H    6.164220   -0.043921   -0.000127
 H    5.174798   -2.338094   -0.000758
 H    4.413165    2.870132   -0.881526
 H    4.410192    2.870977    0.880673
 H    5.865348    2.348799    0.002214
 H   -1.698895   -2.904510    0.000312
