55 
6fgc_ligand_xtb.xyz
 C   -4.141468   -2.267832    1.564211
 C   -2.784674   -1.742738    1.093497
 C   -1.731434   -2.021451    2.163533
 C   -0.355428   -1.551503    1.714441
 C   -0.368648   -0.047302    1.451742
 C    0.989522    0.525820    1.007227
 C    1.286768    0.087905   -0.428729
 C   -1.001252   -0.024649   -1.012154
 C   -1.446094    0.346546    0.418210
 C   -2.838349   -0.238816    0.780103
 C   -3.892984    0.044983   -0.301985
 C   -3.823912    1.446587   -0.907141
 C   -2.464266    1.716843   -1.591706
 C   -2.588281    2.571790   -2.846453
 C    3.410642   -0.000926   -1.454909
 C    4.549483    0.884220   -1.921248
 C    5.880637    0.177256   -1.691942
 C    6.111483   -0.063228   -0.220580
 C    2.139315    0.147777    1.933756
 O    0.274858    0.489446   -1.313446
 O   -1.872894    0.465107   -1.970765
 O   -1.604939    2.412650   -0.744373
 O   -1.545050    1.771499    0.522042
 O    2.454691    0.733508   -0.880930
 O    3.382284   -1.195134   -1.581448
 O    5.361700    0.245981    0.665170
 O    7.278629   -0.676910    0.002969
 H   -4.511414   -1.673081    2.396352
 H   -4.040308   -3.297394    1.900123
 H   -4.876958   -2.247736    0.766018
 H   -2.504518   -2.280456    0.180844
 H   -1.700786   -3.092424    2.373094
 H   -2.010085   -1.507560    3.086298
 H    0.371707   -1.769253    2.496452
 H   -0.059110   -2.097316    0.817522
 H   -0.648626    0.458099    2.383965
 H    0.893586    1.616176    0.979132
 H    1.435522   -1.005455   -0.494219
 H   -0.988501   -1.122254   -1.127157
 H   -3.130576    0.293730    1.693855
 H   -3.782293   -0.681596   -1.109774
 H   -4.883799   -0.079568    0.135759
 H   -3.967153    2.205866   -0.136249
 H   -4.618126    1.547047   -1.647082
 H   -3.089933    1.993539   -3.615247
 H   -3.147891    3.474300   -2.621608
 H   -1.590977    2.835293   -3.185120
 H    4.407253    1.078972   -2.985424
 H    4.498846    1.826524   -1.378010
 H    6.716977    0.754321   -2.088235
 H    5.876830   -0.797548   -2.184633
 H    2.352921   -0.916819    1.877489
 H    1.893620    0.407514    2.960327
 H    3.042004    0.678947    1.644427
 H    7.401647   -0.839795    0.951610
