42 
6fgl_ligand_xtb.xyz
 C  -33.912058   37.664064  -21.272636
 C  -33.998230   39.165252  -21.384839
 O  -33.040131   39.866724  -21.597828
 N  -35.268305   39.697372  -21.225149
 C  -36.437059   38.999757  -20.962618
 C  -37.490260   39.853790  -20.871297
 N  -38.828222   39.487249  -20.661560
 C  -39.574746   39.959139  -19.613906
 C  -38.778977   40.631663  -18.517412
 O  -40.776105   39.814772  -19.564645
 C  -39.410174   38.678868  -21.678276
 C  -40.034615   37.469933  -21.375024
 C  -40.137140   36.961590  -19.972020
 C  -40.565589   36.736796  -22.431321
 C  -40.471295   37.161890  -23.739610
 C  -39.828468   38.361225  -24.030228
 C  -39.300025   39.114436  -22.994121
 O  -39.739436   38.754323  -25.329428
 C  -36.986088   41.181559  -21.108117
 C  -35.597898   41.050384  -21.314035
 C  -34.804148   42.156618  -21.574622
 C  -35.427082   43.389070  -21.641035
 C  -36.802992   43.524551  -21.466027
 C  -37.596599   42.428246  -21.199381
 H  -32.877786   37.369596  -21.428374
 H  -34.230585   37.335640  -20.285646
 H  -34.536698   37.187698  -22.025240
 H  -36.449781   37.932809  -20.868239
 H  -38.477494   41.631891  -18.818382
 H  -39.409933   40.709137  -17.636042
 H  -37.884594   40.058615  -18.283708
 H  -39.214129   37.142635  -19.422164
 H  -40.939256   37.483172  -19.449640
 H  -40.351734   35.895981  -19.966709
 H  -41.060679   35.801158  -22.217468
 H  -40.884631   36.582795  -24.549251
 H  -38.804893   40.054610  -23.201927
 H  -39.301011   39.611861  -25.383727
 H  -33.742755   42.055398  -21.724694
 H  -34.833318   44.267540  -21.842875
 H  -37.252118   44.503395  -21.542792
 H  -38.665564   42.526397  -21.078085
