42 
6fhu_ligand_ani-2x.xyz
 N    1.723287   -0.139502    2.478463
 C    2.677133   -0.228220    1.328966
 C    1.778111   -0.761779    0.203788
 O    0.900612   -1.564403    0.517598
 C    3.822997   -1.195453    1.605661
 N    1.974437   -0.304836   -1.055104
 C    0.918749   -0.306919   -2.084248
 C   -0.191752    0.680392   -1.686090
 O   -0.311151    1.760199   -2.241854
 C    0.426136   -1.712462   -2.438911
 C   -0.573731   -1.684113   -3.592491
 N   -1.008037    0.289622   -0.659726
 C   -1.699636    1.313973    0.083410
 C   -0.700963    2.180973    0.876833
 O    0.445999    1.820529    1.116735
 C   -2.678209    0.658832    1.060957
 O   -1.878433   -0.185382    1.885918
 C   -3.776684   -0.122862    0.359617
 N   -1.199197    3.355937    1.333470
 H    1.122775    0.692564    2.301341
 H    1.135588   -0.995550    2.404419
 H    2.198792   -0.064604    3.388388
 H    3.053391    0.770000    1.089531
 H    4.477393   -1.266676    0.732292
 H    4.427723   -0.855673    2.453041
 H    3.440746   -2.198619    1.825038
 H    2.657691    0.432789   -1.148554
 H    1.375533    0.142530   -2.969532
 H    1.308598   -2.302172   -2.708640
 H   -0.010874   -2.189653   -1.559874
 H   -0.148160   -1.193816   -4.476171
 H   -1.482606   -1.139607   -3.311856
 H   -0.866297   -2.699263   -3.876851
 H   -0.693336   -0.493275   -0.091045
 H   -2.236491    1.948124   -0.630265
 H   -3.128616    1.453950    1.674250
 H   -2.468314   -0.659062    2.485033
 H   -4.478142   -0.539541    1.091549
 H   -3.351878   -0.943815   -0.225638
 H   -4.342153    0.530948   -0.312640
 H   -0.554814    4.005520    1.759656
 H   -2.086017    3.710776    1.013736
