34 
6fnx_ligand_xtb.xyz
 C  -12.289332   -6.183528    0.679774
 C  -13.208015   -5.353794    0.046780
 C  -14.517838   -5.120613    0.578371
 C  -11.352149   -5.465876   -1.071575
 N  -14.682409   -5.841125    1.759389
 N  -12.568637   -6.838299    1.840128
 C  -13.089215   -2.553463   -1.511938
 C  -13.114708   -3.980635   -2.050387
 N  -12.573635   -4.907287   -1.089219
 N  -11.141433   -6.243043   -0.030804
 O  -15.402764   -4.419960    0.132812
 C  -13.799271   -6.671287    2.431639
 O  -14.114752   -7.217276    3.463452
 C  -11.546372   -7.639893    2.501499
 C  -10.687501   -6.765550    3.378117
 C  -11.055325   -6.521073    4.694750
 C  -10.287868   -5.685611    5.487434
 C   -9.151923   -5.086751    4.969158
 C   -8.787339   -5.320802    3.653822
 C   -9.553044   -6.155772    2.858962
 H  -10.623327   -5.299999   -1.840064
 H  -15.583575   -5.740724    2.213773
 H  -13.740155   -2.476174   -0.645130
 H  -12.078888   -2.267688   -1.226968
 H  -13.447272   -1.868370   -2.274741
 H  -12.521825   -4.060484   -2.965006
 H  -14.147809   -4.269486   -2.259431
 H  -10.949205   -8.108499    1.717653
 H  -12.065992   -8.393018    3.097448
 H  -11.947758   -6.982457    5.090745
 H  -10.577117   -5.501301    6.511579
 H   -8.552429   -4.436295    5.589183
 H   -7.903834   -4.851478    3.246145
 H   -9.280881   -6.334090    1.829147
