34 
6fnx_ligand_aiqm1.xyz
 C  -12.323084   -6.200792    0.663104
 C  -13.235289   -5.383835    0.032918
 C  -14.560401   -5.167936    0.557780
 C  -11.353012   -5.453943   -1.055507
 N  -14.726865   -5.890344    1.736154
 N  -12.603626   -6.877011    1.820906
 C  -13.090770   -2.533780   -1.486660
 C  -13.105855   -3.947218   -2.046682
 N  -12.582412   -4.909387   -1.086211
 N  -11.146517   -6.255917   -0.011478
 O  -15.450347   -4.478631    0.093361
 C  -13.830318   -6.711889    2.419994
 O  -14.147975   -7.244683    3.464139
 C  -11.552686   -7.640938    2.511609
 C  -10.686311   -6.752109    3.371419
 C  -11.063592   -6.463985    4.686488
 C  -10.278624   -5.626249    5.476746
 C   -9.110986   -5.068975    4.963177
 C   -8.730178   -5.353804    3.654892
 C   -9.512312   -6.190801    2.861992
 H  -10.619612   -5.247336   -1.818316
 H  -15.623120   -5.788983    2.189121
 H  -13.731512   -2.468675   -0.610311
 H  -12.079591   -2.231627   -1.209915
 H  -13.466253   -1.836804   -2.236227
 H  -12.487750   -4.029305   -2.939984
 H  -14.118781   -4.248084   -2.298243
 H  -10.958471   -8.134140    1.741137
 H  -12.060093   -8.390266    3.116107
 H  -11.975644   -6.888839    5.088428
 H  -10.583293   -5.408835    6.492372
 H   -8.503065   -4.417495    5.577504
 H   -7.824114   -4.922864    3.247988
 H   -9.221141   -6.396222    1.838701
