34 
6fnx_ligand_ani-2x.xyz
 C  -12.285449   -6.124180    0.638101
 C  -13.198252   -5.305179    0.007653
 C  -14.492490   -5.015448    0.575793
 C  -11.372947   -5.502820   -1.158142
 N  -14.649137   -5.693135    1.796110
 N  -12.554461   -6.754077    1.835581
 C  -13.167741   -2.567751   -1.791758
 C  -13.172699   -4.041180   -2.178730
 N  -12.595037   -4.907856   -1.160354
 N  -11.145299   -6.241923   -0.088554
 O  -15.377292   -4.301996    0.134724
 C  -13.777812   -6.541279    2.472249
 O  -14.069651   -7.062319    3.529646
 C  -11.537407   -7.558175    2.506645
 C  -10.681302   -6.752538    3.467025
 C  -10.941013   -6.745897    4.837576
 C  -10.153173   -5.991328    5.701426
 C   -9.101463   -5.232189    5.199259
 C   -8.843535   -5.224044    3.831692
 C   -9.631891   -5.979237    2.969820
 H  -10.683442   -5.358175   -1.979290
 H  -15.534122   -5.555127    2.268420
 H  -13.817793   -2.395248   -0.930276
 H  -12.155586   -2.227832   -1.552080
 H  -13.541827   -1.968654   -2.628659
 H  -12.595530   -4.210648   -3.091661
 H  -14.194977   -4.383225   -2.362221
 H  -10.915999   -7.992700    1.716647
 H  -12.060924   -8.357760    3.034286
 H  -11.770170   -7.330288    5.231657
 H  -10.359961   -5.999083    6.768780
 H   -8.483706   -4.642919    5.873015
 H   -8.024654   -4.628711    3.435888
 H   -9.456859   -5.968778    1.896232
