34 
6fnx_ligand_dft.xyz
 C    0.666460   -0.109628   -0.835441
 C    1.872283    0.106543   -0.206285
 C    2.197843    1.339123    0.452980
 C    1.788705   -1.871449   -1.105814
 N    1.121455    2.228548    0.351540
 N   -0.323194    0.846491   -0.882587
 C    3.908306   -1.591456    1.628056
 C    3.925211   -1.349929    0.124146
 N    2.595318   -1.054078   -0.399837
 N    0.609064   -1.340768   -1.398006
 O    3.228746    1.637273    1.034043
 C   -0.126741    2.062158   -0.251609
 O   -0.964187    2.944690   -0.220140
 C   -1.629334    0.549365   -1.479890
 C   -2.575268   -0.105910   -0.498848
 C   -3.348922    0.676832    0.360936
 C   -4.202015    0.074291    1.280030
 C   -4.288957   -1.314160    1.347408
 C   -3.517146   -2.098604    0.494734
 C   -2.662688   -1.496769   -0.424554
 H    2.102900   -2.864659   -1.397581
 H    1.245103    3.127768    0.798805
 H    3.595424   -0.683062    2.148570
 H    3.228799   -2.409670    1.885306
 H    4.914312   -1.852293    1.970056
 H    4.287151   -2.228513   -0.417352
 H    4.573680   -0.505690   -0.119722
 H   -1.443442   -0.102465   -2.335697
 H   -2.030471    1.498909   -1.836032
 H   -3.268134    1.758901    0.310598
 H   -4.801895    0.690274    1.943575
 H   -4.957595   -1.783612    2.063182
 H   -3.580906   -3.181793    0.544292
 H   -2.046304   -2.103604   -1.082099
