73 
6fo7_ligand_xtb.xyz
 C   -4.472287   -4.237757    0.089471
 C   -3.951793   -2.947508   -0.530543
 C   -3.485571   -3.158553   -1.968452
 C   -2.910094   -1.874599   -2.576185
 C   -1.668746   -1.435332   -1.854424
 O    2.415614    3.444377    2.828388
 C    3.357659    2.474407    2.354901
 C    4.354325    2.161884    3.474424
 C    4.087421    3.035690    1.132444
 C    2.497880    1.254708    1.987354
 C    3.257095   -0.031472    1.673102
 C    2.282569   -1.128633    1.248591
 C    2.974515   -2.466486    1.000820
 C    1.979392   -3.607324    0.737159
 C    1.247726   -3.425308   -0.562058
 C    0.125014   -2.615005   -0.629919
 C    1.699592   -4.035134   -1.725637
 C    1.030581   -3.841416   -2.921650
 C   -0.079633   -3.019777   -2.979831
 C   -0.538439   -2.379133   -1.831824
 C   -1.508636   -0.246745   -1.247192
 C   -2.478830    0.802090   -1.083704
 C   -2.171661    2.065837   -0.745939
 C   -0.794796    2.560744   -0.631864
 C    0.118875    2.369904   -1.575883
 C   -0.490433    3.315730    0.645842
 O    0.787238    3.905123    0.583029
 C   -1.566143    4.386168    0.898804
 C   -2.962984    3.772954    0.892704
 O   -3.044240    2.862936    1.970804
 C   -3.231113    3.090902   -0.456073
 H   -5.312235   -4.626137   -0.483189
 H   -4.803509   -4.067244    1.111380
 H   -3.690062   -4.993794    0.103683
 H   -3.117144   -2.568429    0.062685
 H   -4.741034   -2.191709   -0.513318
 H   -4.327527   -3.499123   -2.576357
 H   -2.720796   -3.938548   -1.987782
 H   -2.666404   -2.061956   -3.625568
 H   -3.663576   -1.087526   -2.552104
 H    2.893530    4.254343    3.040807
 H    3.837764    1.721007    4.323590
 H    5.119548    1.475454    3.125993
 H    4.842428    3.077742    3.806125
 H    4.749021    2.288086    0.705902
 H    4.685174    3.902665    1.411423
 H    3.363674    3.340574    0.380310
 H    1.887780    1.525331    1.123754
 H    1.820687    1.074636    2.825521
 H    3.808515   -0.366599    2.553376
 H    3.975295    0.140377    0.869498
 H    1.766524   -0.813498    0.340203
 H    1.533033   -1.255556    2.033761
 H    3.651834   -2.376072    0.148522
 H    3.573401   -2.726742    1.877423
 H    2.527764   -4.551714    0.716318
 H    1.263890   -3.647324    1.561668
 H   -0.258412   -2.160251    0.271935
 H    2.573961   -4.669856   -1.693637
 H    1.384023   -4.328725   -3.819314
 H   -0.574150   -2.856110   -3.925915
 H   -0.533873   -0.023344   -0.831344
 H   -3.523147    0.536911   -1.192289
 H   -0.111791    1.847745   -2.488456
 H    1.113896    2.763780   -1.466297
 H   -0.543675    2.590943    1.471939
 H    1.225789    3.812753    1.445858
 H   -1.378112    4.851129    1.867726
 H   -1.493489    5.150777    0.124358
 H   -3.709408    4.574987    1.038829
 H   -3.847400    2.339934    1.876731
 H   -3.219233    3.860274   -1.233489
 H   -4.222252    2.627738   -0.453723
