79 
6fo8_ligand_aiqm1.xyz
 C   -6.150268    5.761789    2.278698
 C   -6.356301    4.274037    2.545895
 C   -5.055958    3.473148    2.564596
 C   -4.338567    3.417167    1.221045
 C   -3.072127    2.569994    1.264426
 C   -2.347680    2.503924   -0.079164
 C   -1.087965    1.678564   -0.005802
 O    3.156387   -3.891743   -1.083704
 C    4.502851   -3.425621   -0.944495
 C    5.176404   -4.429788   -0.019306
 C    5.192157   -3.411964   -2.305195
 C    4.499960   -2.007897   -0.358087
 C    3.777079   -1.876657    0.975292
 C    3.676547   -0.439123    1.470811
 C    2.911192   -0.340251    2.786147
 C    2.690058    1.091850    3.271727
 C    1.899484    1.960271    2.316652
 C    0.794802    1.468701    1.619438
 C    2.269259    3.293805    2.110922
 C    1.545639    4.105885    1.243465
 C    0.445488    3.600107    0.556870
 C    0.064337    2.264727    0.730915
 C   -0.965007    0.441326   -0.524086
 C   -1.982878   -0.313622   -1.256911
 C   -1.814454   -1.545058   -1.778080
 C   -0.562419   -2.356201   -1.702294
 C    0.020596   -2.725539   -0.549536
 C   -0.050091   -2.783073   -3.065863
 O    1.110668   -3.596873   -3.002173
 C   -1.163059   -3.460337   -3.860987
 C   -2.405756   -2.582567   -3.975955
 O   -2.144368   -1.428201   -4.773123
 C   -2.910520   -2.202995   -2.587364
 H   -7.095101    6.304582    2.329839
 H   -5.722016    5.938372    1.290773
 H   -5.472564    6.197775    3.015288
 H   -6.859194    4.148217    3.507776
 H   -7.028395    3.854309    1.789670
 H   -5.271513    2.451569    2.892208
 H   -4.379587    3.901377    3.313448
 H   -4.082118    4.431234    0.895378
 H   -5.021104    3.014175    0.463069
 H   -3.327491    1.555139    1.588606
 H   -2.391798    2.974232    2.020591
 H   -3.022748    2.110971   -0.842914
 H   -2.098589    3.520589   -0.397741
 H    2.739910   -3.471200   -1.848899
 H    5.207691   -5.408398   -0.501472
 H    6.198473   -4.117449    0.209935
 H    4.621803   -4.529377    0.913309
 H    5.152879   -4.405115   -2.755259
 H    6.237871   -3.114209   -2.206883
 H    4.694729   -2.706269   -2.974746
 H    4.024734   -1.342332   -1.089753
 H    5.536898   -1.665856   -0.251295
 H    2.770819   -2.295480    0.877781
 H    4.287813   -2.482107    1.731433
 H    3.181501    0.176805    0.713395
 H    4.679112   -0.016054    1.599824
 H    1.942812   -0.840645    2.672591
 H    3.448201   -0.894966    3.561765
 H    2.177439    1.062399    4.240107
 H    3.658067    1.569975    3.451298
 H    0.490283    0.435880    1.753384
 H    3.131855    3.693746    2.630901
 H    1.844880    5.136027    1.094482
 H   -0.095554    4.236899   -0.132240
 H   -0.008924   -0.061687   -0.413295
 H   -2.949269    0.162262   -1.403936
 H   -0.379260   -2.381850    0.395700
 H    0.917181   -3.327942   -0.523128
 H    0.277988   -1.890282   -3.602636
 H    0.906060   -4.379450   -2.479953
 H   -0.793256   -3.711696   -4.857306
 H   -1.435908   -4.395737   -3.356647
 H   -3.182573   -3.131576   -4.507793
 H   -1.819194   -0.735354   -4.192112
 H   -3.777618   -1.544887   -2.681863
 H   -3.240614   -3.114597   -2.079657
