70 
6fo9_ligand_xtb.xyz
 C   -4.922247   -1.469506   -4.007516
 C   -3.735881   -0.857848   -3.274145
 C   -2.790526   -1.935467   -2.727493
 C   -1.621576   -1.298046   -2.034445
 O    2.513614    1.717159    3.323389
 C    3.557982    1.162662    2.543644
 C    4.760630    2.095821    2.697469
 C    3.913038   -0.235128    3.064651
 C    3.117428    1.053124    1.066989
 C    2.665499    2.390992    0.483922
 C    1.898755    2.238830   -0.829505
 C    2.807600    1.967656   -2.025952
 C    2.027103    1.825868   -3.344169
 C    1.372735    0.478586   -3.450881
 C    0.166821    0.221446   -2.817235
 C    1.992589   -0.555101   -4.142960
 C    1.410588   -1.809026   -4.202780
 C    0.219353   -2.059793   -3.547609
 C   -0.408853   -1.046464   -2.829616
 C   -1.622946   -0.899503   -0.749651
 C   -2.682148   -1.064299    0.205052
 C   -2.638210   -0.627856    1.474511
 C   -1.511061    0.122471    2.049219
 C   -1.052278    1.261338    1.546855
 C   -0.933467   -0.521685    3.294254
 O    0.115497    0.216446    3.876840
 C   -2.053183   -0.788848    4.310494
 C   -3.160524   -1.638402    3.691268
 O   -2.608177   -2.896219    3.370280
 C   -3.735803   -0.929060    2.456026
 H   -4.582917   -2.070134   -4.848837
 H   -5.496779   -2.109487   -3.340624
 H   -5.580348   -0.690732   -4.386020
 H   -4.091711   -0.241395   -2.445574
 H   -3.178109   -0.210170   -3.954389
 H   -2.437087   -2.543562   -3.561975
 H   -3.341200   -2.585326   -2.044656
 H    1.814712    1.050509    3.412726
 H    4.466802    3.116396    2.473058
 H    5.564185    1.794975    2.031299
 H    5.116727    2.064794    3.723842
 H    4.184664   -0.178961    4.116333
 H    3.058534   -0.902493    2.965199
 H    4.748420   -0.650881    2.507507
 H    2.280861    0.349532    1.017697
 H    3.938792    0.637168    0.482527
 H    3.528362    3.039526    0.323908
 H    2.020650    2.873937    1.221420
 H    1.339412    3.158542   -1.022589
 H    1.179927    1.425225   -0.724388
 H    3.513653    2.795979   -2.124150
 H    3.383067    1.055785   -1.856224
 H    2.718424    1.956096   -4.179445
 H    1.274820    2.615955   -3.399223
 H   -0.353041    1.020839   -2.309727
 H    2.934417   -0.375081   -4.641712
 H    1.897518   -2.601802   -4.752596
 H   -0.205848   -3.052898   -3.565586
 H   -0.720910   -0.445411   -0.361851
 H   -3.561285   -1.606226   -0.118933
 H   -0.217006    1.783293    1.982552
 H   -1.498927    1.707621    0.675245
 H   -0.488615   -1.483070    3.010966
 H   -0.244779    1.046181    4.213826
 H   -2.473871    0.161306    4.650369
 H   -1.631195   -1.313635    5.168493
 H   -3.967889   -1.771274    4.433800
 H   -3.242094   -3.392263    2.841765
 H   -4.207255    0.001928    2.784450
 H   -4.505135   -1.551335    1.991109
