82 
6fob_ligand_xtb.xyz
 C   -7.052557    1.201265    1.267802
 C   -5.792617    0.345219    1.209970
 C   -4.506446    1.150361    1.396236
 C   -4.215508    2.104277    0.240168
 C   -2.863033    2.792638    0.412195
 C   -2.426129    3.588100   -0.818210
 C   -1.943558    2.699329   -1.976502
 C   -0.734652    1.909953   -1.565501
 O    3.026544   -3.426284   -0.377026
 C    4.124600   -2.771914    0.263498
 C    5.427410   -3.206462   -0.412661
 C    4.145036   -3.160424    1.745155
 C    3.843818   -1.273055    0.068835
 C    4.974159   -0.336619    0.488150
 C    4.591778    1.136463    0.328121
 C    3.657285    1.634377    1.427396
 C    3.228780    3.087050    1.191945
 C    2.460272    3.239912   -0.091410
 C    1.257858    2.570374   -0.260835
 C    2.932893    4.031356   -1.129586
 C    2.209400    4.148170   -2.304423
 C    1.013366    3.473993   -2.462120
 C    0.524459    2.664739   -1.439701
 C   -0.748263    0.614867   -1.204380
 C   -1.881939   -0.270715   -1.193334
 C   -1.935152   -1.436800   -0.531022
 C   -0.838477   -1.953622    0.296659
 C   -0.237684   -1.257792    1.252948
 C   -0.476768   -3.392521   -0.015934
 O    0.533045   -3.919341    0.806574
 C   -1.736653   -4.251788    0.139677
 C   -2.824605   -3.775899   -0.822884
 O   -2.427105   -3.895042   -2.173908
 C   -3.163167   -2.304597   -0.567205
 H   -7.939343    0.573950    1.207988
 H   -7.090158    1.759278    2.201073
 H   -7.082437    1.907940    0.442766
 H   -5.846341   -0.412109    1.996245
 H   -5.752140   -0.177446    0.251512
 H   -4.565885    1.715512    2.329636
 H   -3.669435    0.452431    1.483008
 H   -4.223688    1.533760   -0.688681
 H   -4.996524    2.863820    0.173290
 H   -2.918264    3.466990    1.270495
 H   -2.103554    2.040258    0.632640
 H   -1.606843    4.254856   -0.537137
 H   -3.256913    4.206939   -1.165435
 H   -2.748209    2.040340   -2.297315
 H   -1.688220    3.348929   -2.816638
 H    3.198725   -4.375554   -0.385143
 H    6.286282   -2.775482    0.091921
 H    5.522044   -4.291542   -0.376764
 H    5.431595   -2.893932   -1.454230
 H    4.946932   -2.646562    2.266092
 H    4.298578   -4.233230    1.851707
 H    3.198025   -2.903447    2.213559
 H    2.934657   -1.034786    0.622357
 H    3.625253   -1.118652   -0.990069
 H    5.850183   -0.533987   -0.131450
 H    5.249801   -0.520325    1.528395
 H    4.114542    1.281736   -0.643335
 H    5.501096    1.742607    0.343158
 H    2.769432    1.003143    1.468123
 H    4.162683    1.562159    2.393672
 H    4.113465    3.726971    1.169634
 H    2.601271    3.409129    2.027771
 H    0.865433    1.971427    0.548048
 H    3.868925    4.560352   -1.018665
 H    2.585979    4.767080   -3.106454
 H    0.471424    3.555931   -3.392997
 H    0.185563    0.170328   -0.882668
 H   -2.750030    0.023828   -1.766459
 H   -0.534735   -0.251230    1.493120
 H    0.543805   -1.694003    1.852300
 H   -0.162560   -3.432513   -1.072889
 H    1.384468   -3.561496    0.499676
 H   -2.090502   -4.180084    1.168856
 H   -1.479255   -5.296054   -0.056278
 H   -3.734719   -4.381289   -0.659917
 H   -2.096199   -4.787373   -2.322136
 H   -3.677117   -2.236635    0.396608
 H   -3.843582   -1.961432   -1.347373
