82 
6fob_ligand_aiqm1.xyz
 C   -6.089377    0.404486    1.336343
 C   -4.692119    0.461371    1.947142
 C   -4.016699    1.822885    1.787195
 C   -3.845600    2.244831    0.328447
 C   -2.803387    3.344173    0.155874
 C   -2.557697    3.757965   -1.295522
 C   -2.049555    2.631142   -2.208821
 C   -0.843383    1.914439   -1.648875
 O    2.756833   -3.540662   -0.048413
 C    3.984530   -2.857468    0.282310
 C    5.071709   -3.300745   -0.689799
 C    4.365662   -3.216723    1.716212
 C    3.631722   -1.379402    0.132625
 C    4.791925   -0.406694    0.343273
 C    4.361596    1.057342    0.234839
 C    3.511780    1.536413    1.409316
 C    3.086265    3.001714    1.271747
 C    2.282235    3.262223    0.018713
 C    1.117415    2.540892   -0.245596
 C    2.703038    4.205610   -0.922694
 C    1.970008    4.417813   -2.088652
 C    0.814043    3.685310   -2.338418
 C    0.379651    2.724926   -1.418277
 C   -0.838061    0.616617   -1.290762
 C   -1.943738   -0.338783   -1.383448
 C   -2.051484   -1.467984   -0.658313
 C   -1.058293   -1.943749    0.350355
 C   -0.626367   -1.205812    1.382955
 C   -0.638293   -3.390123    0.129942
 O    0.236740   -3.878142    1.127150
 C   -1.880031   -4.273840    0.106608
 C   -2.851790   -3.839941   -0.983067
 O   -2.268015   -3.966900   -2.282185
 C   -3.246014   -2.380962   -0.823444
 H   -6.558200   -0.564479    1.515055
 H   -6.734700    1.175005    1.763202
 H   -6.057740    0.561205    0.256557
 H   -4.748008    0.210593    3.009677
 H   -4.059897   -0.299390    1.477955
 H   -4.587007    2.588733    2.327918
 H   -3.032724    1.779091    2.261985
 H   -3.559064    1.366991   -0.256518
 H   -4.806804    2.581286   -0.077906
 H   -3.116773    4.226031    0.723612
 H   -1.858324    3.013945    0.601789
 H   -1.830357    4.574434   -1.305332
 H   -3.483178    4.157465   -1.723948
 H   -2.853514    1.917864   -2.395300
 H   -1.799314    3.056620   -3.186186
 H    2.941681   -4.476898   -0.165790
 H    6.027377   -2.829814   -0.460043
 H    5.209221   -4.383719   -0.634604
 H    4.791039   -3.037387   -1.709849
 H    5.273855   -2.699533    2.026253
 H    4.540014   -4.291620    1.803631
 H    3.557169   -2.941316    2.393334
 H    2.822155   -1.157406    0.834237
 H    3.220620   -1.235497   -0.870486
 H    5.571315   -0.600710   -0.399837
 H    5.253405   -0.576401    1.324559
 H    3.808838    1.208626   -0.698550
 H    5.252998    1.688859    0.169911
 H    2.614891    0.911792    1.501948
 H    4.071450    1.413106    2.341946
 H    3.975243    3.640605    1.259662
 H    2.502453    3.289551    2.151206
 H    0.765505    1.808413    0.473315
 H    3.607950    4.774394   -0.740575
 H    2.307342    5.153779   -2.808307
 H    0.260039    3.845889   -3.254846
 H    0.076083    0.211434   -0.862388
 H   -2.748642   -0.114079   -2.077720
 H   -0.943596   -0.176864    1.504991
 H    0.051211   -1.635132    2.109506
 H   -0.161169   -3.443767   -0.857618
 H    1.139590   -3.664671    0.854613
 H   -2.374368   -4.221952    1.080434
 H   -1.576255   -5.315120   -0.055835
 H   -3.752254   -4.463388   -0.927092
 H   -2.037127   -4.887713   -2.420335
 H   -3.879217   -2.303252    0.068395
 H   -3.848558   -2.077723   -1.681082
