67 
6fod_ligand_xtb.xyz
 C    1.340437    3.423087   -3.794536
 C    2.012776    2.047825   -3.773589
 C    1.290487    1.136752   -2.820099
 O   -1.490359   -0.683756    2.581000
 C   -1.765745   -2.035559    2.953583
 C   -3.252052   -2.182461    3.290240
 C   -0.930651   -2.391229    4.192684
 C   -1.331117   -2.934479    1.781364
 C   -2.266626   -2.991942    0.572272
 C   -2.314226   -1.692261   -0.227412
 C   -3.364028   -1.755551   -1.333355
 C   -3.381315   -0.490210   -2.202755
 C   -2.138984   -0.396295   -3.040712
 C   -1.043702    0.333121   -2.607556
 C   -2.051977   -1.083171   -4.245817
 C   -0.889635   -1.035236   -4.993742
 C    0.199753   -0.309381   -4.549296
 C    0.139863    0.384631   -3.343040
 C    1.604075    1.017348   -1.517011
 C    2.652856    1.706195   -0.816844
 C    2.948965    1.510690    0.478259
 C    2.249009    0.555313    1.352593
 C    2.239584   -0.754330    1.153669
 C    1.584035    1.222953    2.542431
 O    1.006435    0.324051    3.450020
 C    2.623110    2.061444    3.298517
 C    3.338760    3.060791    2.382675
 O    2.482633    4.085785    1.931104
 C    3.987785    2.320521    1.201058
 H    1.844280    4.082970   -4.497428
 H    1.372342    3.877315   -2.806654
 H    0.298833    3.326804   -4.093980
 H    3.059558    2.155328   -3.487006
 H    1.982804    1.631426   -4.781137
 H   -1.880439   -0.106107    3.248031
 H   -3.867172   -1.761684    2.499126
 H   -3.477814   -1.657133    4.217704
 H   -3.508448   -3.230130    3.419163
 H    0.130871   -2.336822    3.965970
 H   -1.137180   -1.692988    5.001991
 H   -1.166916   -3.395409    4.533397
 H   -0.352831   -2.583737    1.447781
 H   -1.211551   -3.946844    2.171689
 H   -1.912859   -3.791468   -0.084067
 H   -3.273133   -3.264567    0.893661
 H   -1.331693   -1.509575   -0.666709
 H   -2.536460   -0.858764    0.439238
 H   -3.168215   -2.621490   -1.970529
 H   -4.351732   -1.889933   -0.884427
 H   -3.465526    0.386439   -1.557434
 H   -4.258153   -0.522099   -2.853710
 H   -1.110571    0.890433   -1.683996
 H   -2.898795   -1.654681   -4.598610
 H   -0.829081   -1.573343   -5.929029
 H    1.110155   -0.309147   -5.130685
 H    1.025973    0.329284   -0.914115
 H    3.218013    2.449818   -1.362422
 H    2.738390   -1.199201    0.309775
 H    1.755279   -1.424757    1.843178
 H    0.802201    1.900760    2.147680
 H    0.260324   -0.122455    3.010667
 H    2.120674    2.596358    4.105750
 H    3.351734    1.381709    3.741903
 H    4.110174    3.583053    2.959986
 H    1.860550    3.703290    1.300383
 H    4.451407    3.044430    0.528260
 H    4.764759    1.657874    1.590502
