61 
6fr0_ligand_aiqm1.xyz
 C  -14.032252  -18.083695    3.145849
 C  -20.700154  -12.147838   -5.124179
 C  -10.623718  -11.933094   -0.900011
 C  -15.674289  -11.942784   -3.417719
 C  -15.758801  -22.651962   -5.260325
 C  -14.705184  -23.153328   -4.559888
 C  -15.849730  -21.274682   -4.894039
 C  -11.116067  -14.867048    1.543898
 C  -11.880526  -16.016469    1.703206
 C  -14.067311  -17.153192   -1.972884
 C  -15.917136  -16.506745   -3.390141
 C  -14.965752  -14.906138   -1.866487
 C  -12.284533  -14.369028   -0.493331
 C  -13.376594  -18.424960    1.821533
 C  -20.237003  -13.048887   -3.995240
 C  -10.457701  -12.810324    0.324043
 C  -14.382631  -19.874353   -3.238757
 C  -15.011329  -17.468740   -2.947775
 C  -11.306431  -14.025520    0.447320
 C  -14.054481  -15.871213   -1.418523
 C  -15.905922  -15.219868   -2.852262
 C  -16.791224  -12.917767   -3.520538
 C  -12.848032  -16.348525    0.751770
 C  -14.840913  -21.056604   -4.000216
 C  -13.053915  -15.520712   -0.371881
 C  -16.907860  -14.248584   -3.332489
 C  -18.296321  -14.592110   -3.672080
 N  -15.105322  -18.748318   -3.530199
 N  -18.841468  -13.410333   -4.143475
 O   -9.644097  -12.528218    1.182390
 O  -13.456490  -19.928981   -2.456376
 O  -18.905238  -15.648914   -3.628468
 O  -13.643965  -17.435273    0.830075
 O  -14.139981  -22.196982   -3.791374
 O  -17.955876  -12.355074   -3.940692
 H  -13.645570  -17.153254    3.558439
 H  -15.107941  -17.973365    3.012813
 H  -13.850382  -18.882044    3.866115
 H  -20.162666  -11.199868   -5.116337
 H  -20.528830  -12.633124   -6.083673
 H  -21.765877  -11.941925   -5.022524
 H   -9.908099  -11.116191   -0.842030
 H  -10.453175  -12.510435   -1.809456
 H  -11.636797  -11.529781   -0.948938
 H  -15.890082  -11.198286   -2.651037
 H  -14.753974  -12.462587   -3.162975
 H  -15.539102  -11.429271   -4.369131
 H  -16.387191  -23.194121   -5.945464
 H  -14.254751  -24.128800   -4.504702
 H  -16.576789  -20.566518   -5.254571
 H  -10.360299  -14.606790    2.272484
 H  -11.717363  -16.648505    2.562976
 H  -13.383117  -17.910841   -1.623418
 H  -16.666031  -16.771364   -4.127413
 H  -14.961524  -13.921958   -1.411791
 H  -12.453094  -13.732663   -1.355386
 H  -13.801359  -19.336754    1.407741
 H  -12.297370  -18.565657    1.922856
 H  -20.750874  -14.007719   -4.006092
 H  -20.391952  -12.581386   -3.016166
 H  -15.859848  -18.874929   -4.180254
