61 
6fr0_ligand_xtb.xyz
 C  -13.808288  -18.074701    3.097275
 C  -20.061250  -12.552388   -5.795908
 C  -10.863306  -11.806175   -0.942254
 C  -15.855124  -11.911867   -2.648909
 C  -16.045790  -22.541046   -5.234069
 C  -14.927849  -23.065764   -4.652917
 C  -16.107366  -21.200502   -4.802955
 C  -10.967675  -14.851551    1.367245
 C  -11.643581  -16.040823    1.534532
 C  -14.113533  -17.151419   -1.935653
 C  -16.061148  -16.491816   -3.188438
 C  -15.000843  -14.924150   -1.714366
 C  -12.304674  -14.346942   -0.550354
 C  -13.160566  -18.476592    1.775510
 C  -20.199213  -13.066070   -4.366036
 C  -10.523672  -12.717165    0.216480
 C  -14.512471  -19.845154   -3.222773
 C  -15.127934  -17.460498   -2.833156
 C  -11.285277  -13.978157    0.327458
 C  -14.058370  -15.884337   -1.365784
 C  -16.000901  -15.215639   -2.639978
 C  -16.929582  -12.871226   -3.012339
 C  -12.665443  -16.405670    0.658794
 C  -15.015841  -21.008122   -3.986950
 C  -12.992172  -15.538778   -0.407051
 C  -16.997071  -14.228084   -3.033269
 C  -18.320750  -14.566928   -3.572569
 N  -15.267817  -18.722975   -3.415633
 N  -18.927198  -13.356544   -3.774069
 O   -9.663175  -12.419213    1.018036
 O  -13.529785  -19.913733   -2.515103
 O  -18.854999  -15.632568   -3.812187
 O  -13.397500  -17.534146    0.748442
 O  -14.309182  -22.153803   -3.905823
 O  -18.079749  -12.305579   -3.461867
 H  -13.385867  -17.146501    3.474803
 H  -14.876269  -17.931547    2.953448
 H  -13.652958  -18.858223    3.833763
 H  -19.484626  -11.630313   -5.812422
 H  -19.558762  -13.292828   -6.413411
 H  -21.044720  -12.357207   -6.213348
 H  -10.218473  -10.931767   -0.907982
 H  -10.713950  -12.327423   -1.884974
 H  -11.901600  -11.488517   -0.876398
 H  -15.854344  -11.720448   -1.576097
 H  -14.886048  -12.311350   -2.936405
 H  -16.032809  -10.969918   -3.162665
 H  -16.734355  -23.042362   -5.882522
 H  -14.492255  -24.044484   -4.700747
 H  -16.867909  -20.493654   -5.068389
 H  -10.176204  -14.572652    2.046566
 H  -11.366353  -16.684029    2.354603
 H  -13.381261  -17.896430   -1.680338
 H  -16.853374  -16.731133   -3.880494
 H  -14.978542  -13.963589   -1.226619
 H  -12.568184  -13.710183   -1.380467
 H  -13.617916  -19.396814    1.401533
 H  -12.085986  -18.653335    1.900795
 H  -20.745081  -14.012306   -4.344758
 H  -20.717501  -12.331677   -3.741780
 H  -16.067859  -18.805586   -4.026254
