61 
6fr0_ligand_ani-2x.xyz
 C  -13.757900  -18.194054    3.133389
 C  -20.441886  -11.915583   -5.383408
 C  -11.066443  -11.738465   -0.869899
 C  -15.622604  -11.974036   -3.028540
 C  -15.747695  -22.824430   -5.148350
 C  -14.663041  -23.246421   -4.448525
 C  -15.922955  -21.448726   -4.803697
 C  -11.118976  -14.816854    1.445140
 C  -11.770737  -16.031024    1.598313
 C  -14.209793  -17.243938   -1.918640
 C  -16.066924  -16.576755   -3.312058
 C  -15.001927  -14.971314   -1.871988
 C  -12.420569  -14.364519   -0.514049
 C  -13.121157  -18.525539    1.792153
 C  -20.105057  -12.883388   -4.258182
 C  -10.709888  -12.663526    0.273113
 C  -14.509238  -19.940571   -3.170263
 C  -15.173486  -17.549421   -2.872519
 C  -11.435715  -13.968220    0.386740
 C  -14.126358  -15.950775   -1.402684
 C  -15.977654  -15.272172   -2.828155
 C  -16.737472  -12.902755   -3.380685
 C  -12.753263  -16.419729    0.685148
 C  -14.923755  -21.151398   -3.918882
 C  -13.087129  -15.582001   -0.396028
 C  -16.900714  -14.246468   -3.337860
 C  -18.238729  -14.515932   -3.902713
 N  -15.299131  -18.849108   -3.409836
 N  -18.710552  -13.272289   -4.288877
 O   -9.855240  -12.362948    1.083292
 O  -13.548055  -19.953971   -2.420832
 O  -18.883989  -15.545892   -4.044062
 O  -13.452726  -17.582018    0.781176
 O  -14.155409  -22.248679   -3.702434
 O  -17.840112  -12.276122   -3.855765
 H  -13.395795  -17.244120    3.539906
 H  -14.844024  -18.122779    3.024178
 H  -13.531229  -18.983310    3.858376
 H  -19.877461  -10.983853   -5.276738
 H  -20.205345  -12.357494   -6.355577
 H  -21.509543  -11.676918   -5.358545
 H  -10.497607  -10.813895   -0.764049
 H  -10.827501  -12.205765   -1.831806
 H  -12.139051  -11.516383   -0.867217
 H  -15.671594  -11.672536   -1.974108
 H  -14.651223  -12.448403   -3.195879
 H  -15.683664  -11.068222   -3.636171
 H  -16.347777  -23.417437   -5.824804
 H  -14.149609  -24.195122   -4.379459
 H  -16.700112  -20.797734   -5.181361
 H  -10.349985  -14.508152    2.145910
 H  -11.506334  -16.667693    2.435461
 H  -13.536758  -18.019386   -1.584546
 H  -16.856742  -16.814453   -4.018787
 H  -14.945791  -13.969931   -1.450104
 H  -12.667510  -13.724851   -1.358291
 H  -13.511379  -19.475465    1.415124
 H  -12.030759  -18.627842    1.866267
 H  -20.653079  -13.821777   -4.376127
 H  -20.338013  -12.458726   -3.273260
 H  -16.058135  -18.963107   -4.065125
