57 
6frf_ligand_aiqm1.xyz
 C  -16.427092   -4.828068   15.484059
 C  -13.631411   -3.640293   22.776105
 C  -14.516104    4.050256   17.376568
 C  -15.290733    0.219449   14.065978
 C  -20.678482    3.115377   22.792077
 C  -20.323154    2.280324   23.806609
 C  -19.878049    2.731260   21.673799
 C  -13.837849   -5.057608   19.202609
 C  -14.247388   -4.696056   17.925151
 C  -16.357154   -0.616780   19.457385
 C  -16.433211    1.454726   18.215863
 C  -14.993282   -0.331558   17.482539
 C  -14.489875   -2.898767   20.025733
 C  -15.227005   -3.905475   15.392516
 C  -13.510407   -4.611063   21.623024
 C  -18.084929    0.837770   21.461314
 C  -16.852701    0.674842   19.294996
 C  -13.955675   -4.167972   20.270590
 C  -14.651275    3.147460   16.198975
 C  -15.425452   -1.126443   18.545240
 C  -15.505428    0.952953   17.302223
 C  -14.988164    1.446892   14.845064
 C  -19.103756    1.692722   22.105523
 C  -14.766838   -3.420841   17.693994
 C  -14.887564   -2.498668   18.752000
 C  -15.075621    1.782264   16.163130
 N  -14.335707    3.576130   15.002382
 N  -17.800838    1.230091   20.178884
 O  -13.058844   -5.727625   21.788696
 O  -17.573226   -0.103000   22.031787
 O  -15.175387   -2.982915   16.474872
 O  -19.370463    1.412000   23.403142
 O  -14.555111    2.510276   14.140793
 H  -16.387118   -5.437422   16.385029
 H  -17.346874   -4.244507   15.508215
 H  -16.453676   -5.489778   14.617805
 H  -13.252485   -4.118418   23.676493
 H  -13.062052   -2.732523   22.572444
 H  -14.670936   -3.348104   22.923829
 H  -15.494717    4.395627   17.716534
 H  -14.051901    3.526993   18.212347
 H  -13.917982    4.918544   17.105380
 H  -14.422082   -0.078158   13.478084
 H  -15.566036   -0.596723   14.732633
 H  -16.120013    0.406330   13.381941
 H  -21.415015    3.898599   22.837293
 H  -20.644485    2.184908   24.828811
 H  -19.903253    3.170811   20.690527
 H  -13.426875   -6.040507   19.388079
 H  -14.165490   -5.410075   17.119510
 H  -16.689223   -1.211734   20.294515
 H  -16.837644    2.453172   18.085930
 H  -14.268154   -0.724049   16.782443
 H  -14.610279   -2.195324   20.839674
 H  -15.302606   -3.268677   14.512566
 H  -14.288190   -4.462292   15.326168
 H  -18.238433    2.083249   19.882030
