38 
6fsy_ligand_xtb.xyz
 C    0.959969    0.354365    2.752416
 C   -3.080864    1.690391   -0.553949
 C    4.327004   -1.645099   -0.530383
 C    1.332133   -0.351600   -0.419996
 C    1.768168    0.144455   -1.644813
 C   -0.016731   -0.635296   -0.243172
 C   -0.922487   -0.415621   -1.270431
 C   -0.486447    0.076453   -2.487682
 C    0.864005    0.355638   -2.676057
 C   -2.392852   -0.689042   -1.015661
 C   -2.885766    0.394216   -0.085989
 N    4.095237   -1.146419    1.841681
 N   -3.454291    2.694883    0.214689
 C    3.583695   -1.117571    0.641141
 O    3.184377   -0.614551    2.692761
 C    2.082692   -0.267596    2.009132
 C    2.268852   -0.557755    0.678041
 O    1.251154    0.835543   -3.886735
 O   -2.605493   -1.950692   -0.418278
 C   -3.657092    2.458423    1.500589
 C   -3.497835    1.207529    2.074800
 C   -3.100840    0.156385    1.264423
 H    0.331211   -0.413004    3.204085
 H    0.352070    0.953143    2.078693
 H    1.353888    0.978986    3.550994
 H   -2.926152    1.931201   -1.598261
 H    3.639316   -2.101049   -1.239336
 H    4.863220   -0.839341   -1.031039
 H    5.055463   -2.377844   -0.195048
 H    2.811282    0.389852   -1.787949
 H   -0.367976   -1.043353    0.691083
 H   -1.171140    0.254041   -3.301862
 H   -2.945320   -0.622593   -1.967335
 H    2.200897    1.005648   -3.886707
 H   -2.202595   -2.624261   -0.975708
 H   -3.961979    3.313766    2.089061
 H   -3.678185    1.057160    3.128181
 H   -2.970187   -0.839592    1.658321
