38 
6fsy_ligand_aiqm1.xyz
 C    1.349165    0.665553    2.794948
 C   -2.890173    1.707650   -0.349245
 C    4.254958   -1.823617   -0.612176
 C    1.399960   -0.275055   -0.392376
 C    1.819763    0.176696   -1.646889
 C    0.047386   -0.542222   -0.180628
 C   -0.877953   -0.367775   -1.210379
 C   -0.452608    0.071120   -2.463528
 C    0.896797    0.351462   -2.672811
 C   -2.349742   -0.663089   -0.975503
 C   -2.958179    0.349955   -0.034795
 N    4.266682   -1.178458    1.725585
 N   -3.392441    2.683053    0.411398
 C    3.643860   -1.159833    0.573734
 O    3.447645   -0.502073    2.618279
 C    2.330373   -0.099560    1.985420
 C    2.388832   -0.481844    0.678331
 O    1.256980    0.787907   -3.914269
 O   -2.541758   -1.949256   -0.404405
 C   -3.995510    2.316308    1.547922
 C   -4.118333    0.993616    1.959095
 C   -3.588580   -0.011492    1.153718
 H    1.027084    0.082137    3.657688
 H    0.480098    0.913197    2.188375
 H    1.801488    1.590308    3.154481
 H   -2.400165    2.024513   -1.265245
 H    3.516663   -2.424981   -1.143291
 H    4.638698   -1.084580   -1.318270
 H    5.081060   -2.454650   -0.289241
 H    2.866569    0.396676   -1.824667
 H   -0.298290   -0.897754    0.781571
 H   -1.151010    0.205161   -3.280860
 H   -2.862857   -0.597957   -1.942588
 H    2.198547    0.972709   -3.922059
 H   -2.160214   -2.597620   -0.998436
 H   -4.396857    3.121778    2.150698
 H   -4.619455    0.757205    2.888986
 H   -3.658084   -1.055387    1.425133
