30 
6ft8_ligand_aiqm1.xyz
 C  -19.632652   19.328623   12.373920
 C  -18.996128   18.192431   13.006352
 C  -18.459422   17.441659   11.991523
 N  -20.641717   21.495445    8.289041
 C  -19.441841   19.166087   10.968776
 C  -19.940540   20.105815   10.088455
 C  -19.936405   20.260891    8.606763
 C  -18.935300   17.871681   14.435856
 C  -20.033493   18.108993   15.273939
 C  -19.959761   17.783034   16.623985
 C  -18.804676   17.221849   17.159695
 C  -17.715123   16.983324   16.325301
 C  -17.777250   17.305031   14.973097
 O  -19.456331   19.533915    7.779477
 C  -21.007654   21.998622    9.417242
 C  -20.616387   21.205215   10.606215
 C  -20.305002   20.457908   12.860408
 C  -20.807210   21.410088   11.968355
 N  -18.729700   18.019844   10.771921
 O  -16.551248   16.430127   16.781788
 H  -17.912023   16.515426   12.041302
 H  -20.945551   18.522338   14.865270
 H  -20.810167   17.961858   17.268105
 H  -18.752815   16.969994   18.212455
 H  -16.910325   17.112672   14.354575
 H  -21.557340   22.932068    9.458266
 H  -20.424633   20.609601   13.924935
 H  -21.326525   22.284584   12.335608
 H  -16.638114   16.260357   17.721870
 H  -18.468669   17.655518    9.874507
