33 
6ftf_ligand_dft.xyz
 C   -1.303101   -0.268475   -0.832322
 N    0.079969    0.147388   -0.570661
 O   -2.066467    0.855104   -1.131852
 C    1.092953   -0.711275   -0.261792
 N    0.928990   -2.064564   -0.122982
 O   -1.928191   -2.367154    0.298583
 C    2.029549   -2.682659    0.177250
 N    3.230680   -2.072292    0.342288
 O   -4.127848   -1.234546   -0.556932
 C    3.481976   -0.673052    0.234693
 N    3.428953    3.482348   -0.207764
 C    2.262757    0.019076   -0.098783
 O    4.597917   -0.237746    0.417603
 C    1.921502    1.389967   -0.315693
 C    0.572528    1.419789   -0.600445
 C    2.768505    2.530530   -0.254417
 C   -1.933036   -0.968222    0.393484
 C   -3.374284   -0.453978    0.336921
 C   -3.206578    0.942872   -0.263506
 C   -3.010430    2.060872    0.744442
 O   -1.925235    1.729007    1.586355
 H   -1.284955   -0.953630   -1.688041
 H   -0.998905   -2.630057    0.163019
 H    2.016011   -3.759485    0.314495
 H    4.044186   -2.627270    0.576675
 H   -3.768182   -2.133008   -0.489555
 H   -0.076599    2.249633   -0.825022
 H   -1.441614   -0.610504    1.304127
 H   -3.836973   -0.420256    1.332422
 H   -4.073451    1.176353   -0.888430
 H   -2.819103    2.992095    0.192842
 H   -3.943793    2.186718    1.314379
 H   -1.712216    2.489272    2.137879
