30 
6g25_ligand_aiqm1.xyz
 C   -5.699337    7.292221  -21.835897
 C   -3.657488    8.023884  -22.242934
 C   -3.163954    6.954147  -17.881015
 N   -1.912096   11.797205  -19.572860
 C   -7.017386    6.761807  -21.407458
 C   -1.121641   10.837760  -19.080307
 C   -1.540877    9.534042  -18.832673
 N   -3.802350    5.806026  -18.200233
 C   -3.703568   10.182691  -19.603347
 C   -2.862702    9.180192  -19.115222
 C   -4.092177    7.035406  -19.891045
 C   -2.210747    8.390795  -22.210430
 C   -4.485893    7.434885  -21.234881
 C   -3.184037   11.456476  -19.815140
 N   -4.371787    5.825004  -19.415534
 C   -3.337592    7.803632  -18.955103
 N   -4.339315    8.215653  -23.345721
 O   -5.629357    7.767076  -23.092359
 H   -2.665518    7.080253  -16.935377
 H   -7.760801    7.560592  -21.394305
 H   -7.353907    5.996398  -22.105983
 H   -6.941149    6.324140  -20.413336
 H   -0.094692   11.122626  -18.884442
 H   -0.841736    8.799964  -18.449323
 H   -3.892213    4.979135  -17.641181
 H   -4.738543    9.967970  -19.837070
 H   -1.828185    8.401285  -23.229551
 H   -2.061060    9.383810  -21.777244
 H   -1.637148    7.680770  -21.613704
 H   -3.816743   12.242155  -20.210327
