31 
6g2b_ligand_xtb.xyz
 N   -3.449859    7.244355  -18.782912
 N   -4.703826    6.298399  -20.334623
 C   -4.247093    7.487840  -20.820715
 C   -3.460474    8.104399  -19.857437
 C   -4.567585    7.911595  -22.175765
 C   -2.810370    9.404577  -19.856976
 C   -5.753428    7.467616  -22.759035
 C   -5.240800    8.674074  -24.767182
 C   -2.818547    7.439300  -17.508349
 C   -2.854840   11.758599  -20.281783
 C   -0.950500   10.854296  -19.455401
 C   -4.219443    6.187227  -19.132618
 C   -6.087014    7.849208  -24.043892
 C   -4.051190    9.103411  -24.202072
 C   -3.711458    8.723376  -22.917432
 C   -3.501304   10.536608  -20.297389
 N   -1.608378   11.924004  -19.866957
 C   -1.494262    9.581021  -19.427277
 H   -6.399038    6.821212  -22.185069
 H   -5.502617    8.975166  -25.770998
 H   -1.802785    7.034447  -17.506615
 H   -2.774320    8.502553  -17.271785
 H   -3.396636    6.926010  -16.739958
 H   -3.358631   12.657212  -20.613058
 H    0.068065   11.028170  -19.132425
 H   -4.400276    5.359934  -18.474924
 H   -7.010454    7.502992  -24.485218
 H   -3.380558    9.734033  -24.767819
 H   -2.771558    9.045380  -22.493413
 H   -4.519957   10.449976  -20.641920
 H   -0.897466    8.741509  -19.105180
