31 
6g2b_ligand_ani-2x.xyz
 N   -3.457667    7.243661  -18.779377
 N   -4.815440    6.329160  -20.279075
 C   -4.296253    7.483382  -20.798565
 C   -3.472696    8.097736  -19.860618
 C   -4.587636    7.893081  -22.179716
 C   -2.835287    9.422548  -19.845565
 C   -5.776566    7.481433  -22.789246
 C   -5.169290    8.651050  -24.807795
 C   -2.751482    7.405316  -17.522525
 C   -2.925326   11.804151  -20.167353
 C   -0.951822   10.884180  -19.533943
 C   -4.290719    6.215815  -19.090023
 C   -6.067985    7.866300  -24.090508
 C   -3.972285    9.044844  -24.216616
 C   -3.680217    8.665159  -22.912916
 C   -3.558448   10.565784  -20.191186
 N   -1.642670   11.981706  -19.845348
 C   -1.488980    9.602826  -19.516077
 H   -6.462750    6.852195  -22.228316
 H   -5.399313    8.949765  -25.827182
 H   -1.730431    7.008948  -17.569399
 H   -2.714969    8.462997  -17.249450
 H   -3.300825    6.866335  -16.748303
 H   -3.482783   12.701839  -20.426017
 H    0.095106   11.032530  -19.278057
 H   -4.474713    5.407257  -18.390942
 H   -7.000289    7.547841  -24.550351
 H   -3.262459    9.649979  -24.773944
 H   -2.741101    8.967107  -22.454621
 H   -4.599664   10.489553  -20.493071
 H   -0.861639    8.754020  -19.260094
