33 
6g2c_ligand_ani-2x.xyz
 N   -1.594751   11.946286  -19.781370
 C   -0.899165   10.876097  -19.392761
 C   -1.393522    9.577768  -19.402240
 C   -2.703377    9.343420  -19.839600
 C   -3.305856    8.009906  -19.861523
 C   -4.155680    7.430971  -20.802827
 C   -4.140235    6.123011  -19.123522
 C   -4.462329    7.884609  -22.136146
 C   -3.646751    8.554047  -23.111742
 C   -3.425391   10.457739  -20.277981
 C   -2.835235   11.715497  -20.217450
 N   -4.689794    6.274520  -20.296156
 N   -3.282833    7.126695  -18.801408
 C   -2.567538    7.251911  -17.545228
 C   -5.655809    7.685906  -22.783754
 O   -5.578128    8.220885  -24.001699
 N   -4.324737    8.753939  -24.212853
 C   -6.930345    7.029629  -22.386034
 C   -2.211394    8.975304  -23.042837
 H    0.115335   11.062808  -19.046833
 H   -0.756737    8.759116  -19.081068
 H   -4.323982    5.298768  -18.443822
 H   -4.440775   10.358614  -20.653927
 H   -3.395483   12.590084  -20.542282
 H   -1.537995    6.883042  -17.619225
 H   -2.555210    8.296614  -17.223973
 H   -3.093980    6.663983  -16.790889
 H   -6.737157    5.996612  -22.079635
 H   -7.355051    7.525936  -21.507845
 H   -7.650023    7.053671  -23.206704
 H   -2.142667   10.035813  -22.783851
 H   -1.668181    8.410307  -22.280875
 H   -1.724021    8.837792  -24.011241
