33 
6g38_ligand_aiqm1.xyz
 O   -3.062591    1.283460   -0.116160
 C   -3.422902    0.692649   -1.354098
 C   -2.531859   -0.476723   -1.716597
 O   -1.182210    0.026081   -1.844254
 C   -0.312148   -0.693920   -0.996837
 N    0.669811    0.259248   -0.486122
 C    1.031995    1.447902   -1.100889
 C    2.049435    2.035077   -0.401425
 C    2.345184    1.163347    0.697437
 C    3.240626    1.126415    1.781891
 N    3.232408    0.092440    2.628426
 C    2.337407   -0.883688    2.412870
 N    1.434584   -0.979440    1.444295
 C    1.474359    0.073419    0.602910
 N    4.113241    2.139773    2.043171
 C   -1.202354   -1.313655    0.089567
 O   -0.702550   -2.510733    0.621518
 C   -2.486060   -1.596228   -0.678973
 O   -2.403486   -2.825530   -1.373314
 H   -2.166617    1.616706   -0.216944
 H   -4.451699    0.349295   -1.247095
 H   -3.384208    1.432732   -2.160495
 H   -2.836873   -0.881612   -2.684792
 H    0.204846   -1.475839   -1.563917
 H    0.512815    1.762577   -1.990283
 H    2.506202    2.976519   -0.652031
 H    2.359639   -1.698324    3.123035
 H    4.344648    2.772056    1.298859
 H    4.839539    1.930107    2.706274
 H   -1.384064   -0.560296    0.859513
 H    0.113215   -2.267569    1.091114
 H   -3.355360   -1.585906   -0.018092
 H   -1.925373   -3.430441   -0.798761
