63 
6g4y_ligand_ani-2x.xyz
 C    7.370825    0.992898    0.900836
 C   -0.793888   -3.744917   -1.968799
 C    6.896338    0.814450   -0.551995
 C    2.625901   -3.831961   -1.070697
 C    5.715775   -0.070307   -0.647994
 C    4.750361   -0.791962   -0.737398
 C    3.602052   -1.643922   -0.832827
 C    3.746652   -3.032020   -0.962772
 C    1.346695   -3.276078   -1.064208
 N    6.246843    2.931184    0.240839
 C    6.493727    2.130444    1.430904
 C    5.694958    4.262535    0.265886
 O    7.938434    0.392424   -1.389827
 O    0.337634   -4.169242   -1.229446
 C   -1.816756   -3.041172   -1.109943
 N   -1.371566   -1.717967   -0.673426
 C   -0.116720   -1.182117   -0.666248
 N   -0.155633    0.100284   -0.383145
 C   -1.454594    0.423518   -0.171319
 C   -1.785979    1.854936    0.118750
 N   -0.719259    2.656842    0.275245
 O   -2.940938    2.277129    0.205664
 C   -2.244382   -0.720752   -0.288319
 C   -3.649321   -1.037432    0.063843
 O   -4.057097   -2.187408    0.248101
 N   -4.463753    0.031187    0.149239
 C   -5.854067   -0.089392    0.528254
 C   -6.020656   -0.424391    2.015657
 C   -7.486856   -0.325153    2.416192
 O   -8.017843    0.954281    2.138987
 C   -7.982872    1.244224    0.756943
 C   -6.559061    1.230575    0.211885
 C    1.166001   -1.892325   -0.865564
 C    2.317276   -1.105775   -0.780727
 C    6.470596    2.253126   -0.908940
 O    6.385408    2.675061   -2.048228
 H    7.293443    0.074945    1.487376
 H    8.420372    1.294782    0.853649
 H   -0.480433   -3.102493   -2.803033
 H   -1.240866   -4.656592   -2.375374
 H    2.706985   -4.907775   -1.189171
 H    4.736556   -3.476774   -0.984946
 H    5.550242    1.749772    1.851168
 H    6.994735    2.729639    2.200694
 H    4.683140    4.270057    0.690691
 H    5.652608    4.620994   -0.764580
 H    6.330970    4.932884    0.855154
 H    7.698292    0.682103   -2.284378
 H   -2.077021   -3.649162   -0.242037
 H   -2.729170   -2.910962   -1.692339
 H    0.209167    2.290259    0.134795
 H   -0.873409    3.641188    0.428997
 H   -4.043812    0.959617    0.107270
 H   -6.303831   -0.904893   -0.056206
 H   -5.632183   -1.430015    2.205966
 H   -5.434637    0.286141    2.613538
 H   -7.612393   -0.487958    3.490407
 H   -8.070106   -1.096484    1.882624
 H   -8.440500    2.230026    0.635748
 H   -8.598540    0.512138    0.205319
 H   -6.572049    1.397403   -0.872219
 H   -5.978167    2.046638    0.670273
 H    2.196674   -0.036579   -0.664987
