28 
6g92_ligand_dft.xyz
 C   -3.030817    1.957385    0.240595
 C   -2.536855    0.561870    0.049790
 C   -1.258771    0.062232   -0.136816
 N   -0.106111    0.849645   -0.211123
 C    1.196299    0.457366   -0.108016
 C    3.364670    1.109486   -0.102000
 C    3.798698   -0.205790    0.087614
 C    2.772411   -1.139793    0.161077
 C   -1.422967   -1.334747   -0.259033
 C   -4.796362   -0.528280    0.177151
 N    2.091613    1.461225   -0.200518
 C    5.253185   -0.571494    0.198099
 N    1.478339   -0.837654    0.064583
 N   -2.702630   -1.674062   -0.160382
 N   -3.362179   -0.519917    0.014618
 H   -2.208928    2.616123    0.536807
 H   -3.478559    2.369596   -0.672136
 H   -3.784488    2.010591    1.033829
 H   -0.216157    1.840949   -0.359807
 H    4.088651    1.921342   -0.177777
 H    3.000163   -2.196171    0.303919
 H   -0.659437   -2.082453   -0.395746
 H   -5.082251   -0.201611    1.182870
 H   -5.275117    0.123362   -0.560542
 H   -5.127899   -1.554797    0.024601
 H    5.810334   -0.282361   -0.700059
 H    5.728526   -0.077648    1.053062
 H    5.374998   -1.650983    0.329963
