38 
6gdg_ligand_ani-2x.xyz
 C    2.795334   -0.384070    0.899069
 O    3.596152   -0.521309   -0.013844
 N    2.660493    0.754792    1.621128
 C    3.341885    1.974147    1.219859
 C    2.600597    2.733419    0.122020
 C    1.846845   -1.506945    1.345455
 O    0.581874   -0.920726    1.709337
 C    1.564912   -2.500676    0.227069
 O    1.243047   -3.736376    0.818671
 C    0.328755   -1.896078   -0.430991
 O   -0.422876   -2.886434   -1.072311
 C   -0.413952   -1.285810    0.768941
 N   -1.186774   -0.108857    0.399805
 C   -1.257028    1.108305    1.057370
 N   -2.104682    1.948436    0.535023
 C   -2.647178    1.251047   -0.532042
 C   -3.625075    1.576591   -1.488838
 N   -4.207886    2.793023   -1.503082
 N   -3.973767    0.668108   -2.414068
 C   -3.365800   -0.515207   -2.386940
 N   -2.420677   -0.944006   -1.540442
 C   -2.101301   -0.020838   -0.629218
 H    1.849495    0.822885    2.218014
 H    3.465528    2.599309    2.110800
 H    4.337397    1.683351    0.874520
 H    2.495026    2.104564   -0.768379
 H    1.598331    3.029725    0.454790
 H    3.148926    3.637824   -0.162004
 H    2.252856   -2.023374    2.222443
 H    2.415267   -2.578532   -0.464229
 H    0.631469   -4.175321    0.207918
 H    0.614405   -1.086407   -1.118149
 H   -1.227247   -2.449474   -1.421748
 H   -1.080296   -2.034118    1.216352
 H   -0.659916    1.284662    1.941315
 H   -4.025423    3.430191   -0.743428
 H   -4.979685    2.959149   -2.128557
 H   -3.669230   -1.220672   -3.151525
