47 
6gfs_ligand_aiqm1.xyz
 C    2.649420   -0.268979   57.167322
 O    1.560400   -0.181113   57.975046
 O    2.834964    0.568817   56.331092
 C    3.526050   -1.479516   57.410603
 C    4.845546   -1.438223   56.647497
 C    7.116175   -0.298857   56.418606
 C    8.005930   -1.525054   56.580957
 C    5.796680   -0.371455   57.181288
 C    9.337466   -1.385295   55.857292
 C   10.242676   -2.598942   56.009041
 C   11.569797   -2.455052   55.278606
 C   12.475504   -3.668553   55.428606
 C   13.802663   -3.524433   54.698266
 C   14.708404   -4.737800   54.848023
 C   16.035905   -4.594648   54.118203
 C   16.940800   -5.810325   54.269571
 C   18.265482   -5.650827   53.533330
 H    1.551238   -0.920164   58.589459
 H    2.940062   -2.358807   57.124325
 H    3.715302   -1.562066   58.485145
 H    4.644119   -1.242968   55.591795
 H    5.311729   -2.423517   56.709824
 H    6.906418   -0.143224   55.355043
 H    7.667993    0.583065   56.755187
 H    7.487091   -2.416249   56.208113
 H    8.188728   -1.701825   57.647570
 H    5.995814   -0.566590   58.242476
 H    5.300448    0.599617   57.130123
 H    9.859479   -0.496859   56.230742
 H    9.149249   -1.205008   54.793248
 H    9.721072   -3.488710   55.637726
 H   10.434055   -2.777939   57.073426
 H   12.092150   -1.566143   55.650193
 H   11.378978   -2.275860   54.214387
 H   11.953070   -4.557662   55.057000
 H   12.666228   -3.847922   56.493016
 H   14.324815   -2.635391   55.069947
 H   13.611714   -3.344911   53.634087
 H   14.186396   -5.626958   54.476299
 H   14.899309   -4.917589   55.912216
 H   16.559072   -3.706506   54.490109
 H   15.845972   -4.416150   53.053842
 H   16.416893   -6.696254   53.898449
 H   17.128723   -5.987817   55.332710
 H   18.100140   -5.499837   52.464574
 H   18.817104   -4.786583   53.909066
 H   18.897175   -6.531315   53.654551
