47 
6gfs_ligand_ani-2x.xyz
 C    2.619137   -0.285555   57.151073
 O    1.462817   -0.225407   57.853171
 O    2.859541    0.550311   56.321132
 C    3.520984   -1.461499   57.489404
 C    4.849253   -1.449750   56.736246
 C    7.106870   -0.275640   56.410776
 C    7.997662   -1.509411   56.558860
 C    5.795374   -0.339879   57.196792
 C    9.335324   -1.366181   55.834710
 C   10.235692   -2.590871   55.982707
 C   11.576709   -2.444806   55.265219
 C   12.475717   -3.671512   55.410368
 C   13.816581   -3.525670   54.692775
 C   14.715424   -4.752329   54.837752
 C   16.055893   -4.606211   54.120434
 C   16.957190   -5.831727   54.263778
 C   18.293216   -5.671858   53.542111
 H    1.411160   -0.961335   58.478672
 H    2.964753   -2.382143   57.263736
 H    3.691370   -1.462759   58.576181
 H    4.637561   -1.325528   55.667617
 H    5.327925   -2.429142   56.858510
 H    6.883323   -0.117382   55.344946
 H    7.670054    0.608985   56.738894
 H    7.477959   -2.398269   56.175192
 H    8.181662   -1.699051   57.626977
 H    6.018629   -0.478244   58.264602
 H    5.276728    0.620987   57.106298
 H    9.863445   -0.479263   56.215939
 H    9.152181   -1.175873   54.766518
 H    9.712095   -3.477546   55.595171
 H   10.413887   -2.784646   57.051176
 H   12.103215   -1.560065   55.653731
 H   11.398313   -2.248648   54.197179
 H   11.949486   -4.556393   55.021744
 H   12.654059   -3.867670   56.478398
 H   14.342976   -2.640909   55.081449
 H   13.638234   -3.329425   53.624765
 H   14.189079   -5.637269   54.449258
 H   14.893453   -4.948960   55.905802
 H   16.582212   -3.721351   54.508717
 H   15.877978   -4.409602   53.052518
 H   16.430083   -6.713768   53.874310
 H   17.134458   -6.025381   55.330825
 H   18.142251   -5.505676   52.468917
 H   18.850884   -4.813129   53.934223
 H   18.921605   -6.560949   53.658428
