43 
6ggd_ligand_ani-2x.xyz
 N  124.430376  103.029346  -42.627209
 N  122.870016  108.933942  -41.219847
 C  124.133651  102.010495  -44.902713
 C  124.210732  103.064403  -43.996758
 C  124.061380  104.404451  -44.405712
 C  124.458628  104.329407  -42.157255
 C  124.219617  105.219433  -43.223707
 C  124.394723  107.072686  -41.697216
 C  124.795142  101.867247  -41.851968
 C  123.799830  101.216707  -47.219920
 C  123.209479  101.214854  -48.522302
 C  123.820253  104.685675  -45.750750
 C  123.735425  103.644272  -46.650253
 C  123.890317  102.304474  -46.238024
 C  124.183626  106.592368  -42.982710
 C  124.639380  106.164579  -40.648035
 C  124.679121  104.796406  -40.859534
 C  126.301729  101.736570  -41.655951
 C  124.262392   99.941511  -47.119480
 O  123.990413   99.251611  -48.231053
 N  123.319333  100.058534  -49.115665
 C  124.312223  108.552765  -41.415586
 C  122.614235  110.359273  -41.037011
 H  122.356869  108.583634  -42.058655
 H  122.539391  108.405842  -40.382504
 H  124.251309  100.979459  -44.579529
 H  124.280693  101.930079  -40.886021
 H  124.390550  100.990063  -42.364130
 H  122.691230  102.013946  -49.038160
 H  123.700644  105.711130  -46.092663
 H  123.558461  103.858066  -47.700016
 H  123.999750  107.291733  -43.797744
 H  124.803619  106.551469  -39.644784
 H  124.881761  104.107333  -40.043757
 H  126.530964  100.851620  -41.054286
 H  126.808423  101.643764  -42.621210
 H  126.701957  102.617164  -41.142684
 H  124.806485   99.400417  -46.357733
 H  124.879323  108.810229  -40.519261
 H  124.717698  109.129941  -42.249927
 H  121.543144  110.551577  -41.002088
 H  123.065027  110.728674  -40.111690
 H  123.045680  110.941852  -41.856504
