43 
6gjl_ligand_ani-2x.xyz
 N   -0.244980   18.788047   -7.167478
 C   -1.179261   19.876382   -6.923975
 C   -0.000358   17.801260   -6.228516
 N    3.061879   20.134002   -8.127726
 C   -1.694650   15.365209   -5.129261
 C   -4.420166   18.091113   -7.930764
 C    1.830641   19.966732   -7.625361
 C    0.810203   19.000518   -8.138292
 C   -3.070649   18.404368   -7.825692
 O    0.974930   17.065071   -6.303157
 N   -0.924153   17.697911   -5.208396
 C   -0.916237   16.477883   -4.443541
 O   -2.307029   15.486275   -6.164076
 O   -1.618502   14.230707   -4.423552
 C   -2.311796   13.095991   -4.977861
 C   -2.090223   11.938831   -4.029826
 N    1.677082   20.835145   -6.651693
 N    2.843582   21.523923   -6.574060
 N    3.682296   21.114657   -7.450329
 C   -2.642298   19.501202   -7.076055
 C   -5.391247   18.874598   -7.295452
 N   -6.747894   18.594870   -7.448872
 C   -4.965410   19.983145   -6.554562
 C   -3.614488   20.284117   -6.452014
 H   -0.925210   20.672475   -7.632884
 H   -1.004764   20.310177   -5.927824
 H    3.539365   19.655205   -8.877535
 H   -4.730393   17.223380   -8.509213
 H    0.369437   19.385658   -9.066407
 H    1.275728   18.036358   -8.353663
 H   -2.340939   17.772317   -8.324819
 H   -1.842510   18.072799   -5.413573
 H    0.122545   16.160256   -4.318230
 H   -1.339597   16.649351   -3.447524
 H   -1.914585   12.891229   -5.976243
 H   -3.371855   13.344356   -5.082074
 H   -2.598769   11.045435   -4.404264
 H   -1.023668   11.716654   -3.937320
 H   -2.487444   12.173222   -3.038523
 H   -6.961159   17.632054   -7.668919
 H   -7.342933   18.948844   -6.712779
 H   -5.703754   20.609776   -6.057972
 H   -3.309767   21.148500   -5.863719
