43 
6gjl_ligand_dft.xyz
 N   -0.517765   18.911022   -6.753169
 C   -1.449141   19.962408   -6.378135
 C   -0.181243   17.860251   -5.947649
 N    2.538579   19.077829   -7.222363
 C   -1.395983   15.242906   -4.964615
 C   -4.678178   18.329054   -7.628772
 C    1.524307   19.637636   -7.898515
 C    0.168540   19.021784   -8.031563
 C   -3.363750   18.493193   -7.208111
 O    0.791817   17.140146   -6.182148
 N   -0.981942   17.662794   -4.837193
 C   -0.820095   16.401392   -4.158889
 O   -2.070324   15.369113   -5.959973
 O   -1.078719   14.074746   -4.407814
 C   -1.573279   12.899363   -5.075207
 C   -1.081957   11.697097   -4.298653
 N    1.939539   20.792251   -8.372577
 N    3.227286   20.917140   -7.965358
 N    3.596417   19.896478   -7.268998
 C   -2.865194   19.755532   -6.885265
 C   -5.536329   19.428216   -7.743388
 N   -6.835369   19.275718   -8.220650
 C   -5.035045   20.698121   -7.423818
 C   -3.722265   20.851288   -7.004928
 H   -1.048502   20.908316   -6.760673
 H   -1.432179   20.055614   -5.286260
 H    2.510043   18.206349   -6.702147
 H   -5.038760   17.334920   -7.880445
 H   -0.434817   19.642927   -8.695917
 H    0.254371   18.026739   -8.475544
 H   -2.729563   17.612846   -7.137309
 H   -1.946926   17.948090   -4.946731
 H    0.239525   16.216398   -3.979238
 H   -1.322261   16.441765   -3.187330
 H   -1.204861   12.902091   -6.104972
 H   -2.665821   12.948280   -5.109467
 H   -1.437346   10.779266   -4.776739
 H    0.010997   11.672527   -4.272177
 H   -1.454440   11.718170   -3.270520
 H   -7.229923   18.353068   -8.105626
 H   -7.484104   19.998778   -7.944180
 H   -5.677639   21.569622   -7.521036
 H   -3.356702   21.848753   -6.769939
