44 
6gjm_ligand_aiqm1.xyz
 O   -0.036971   17.907922   -6.775312
 C   -0.431672   18.501939   -5.778759
 N   -0.140089   18.028850   -4.505855
 C    0.259681   16.644173   -4.425113
 C   -0.924148   15.698297   -4.532244
 O   -0.506908   14.429599   -4.561603
 C   -1.556228   13.452167   -4.692773
 C   -0.886514   12.101091   -4.717822
 O   -2.079713   16.037384   -4.580815
 N   -1.133521   19.668396   -5.844403
 C   -1.742263   20.317669   -4.693338
 C   -0.761165   21.171320   -3.893282
 C   -1.430160   21.828730   -2.694380
 C   -1.420114   20.217814   -7.170551
 C   -2.836161   19.949244   -7.626591
 C   -3.686924   20.980721   -8.022339
 C   -4.987517   20.723185   -8.446616
 C   -5.476321   19.415489   -8.474571
 N   -6.810058   19.158039   -8.828168
 C   -4.627522   18.376506   -8.079989
 C   -3.328399   18.640563   -7.661955
 H   -0.764890   18.325303   -3.775796
 H    0.772428   16.451791   -3.480230
 H    0.944716   16.421837   -5.238374
 H   -2.109123   13.656198   -5.608828
 H   -2.240523   13.559766   -3.850835
 H   -0.198834   12.034354   -5.560151
 H   -0.328296   11.934510   -3.796572
 H   -1.638012   11.318168   -4.817427
 H   -2.223231   19.571764   -4.051550
 H   -2.546084   20.949587   -5.066209
 H   -0.350950   21.936204   -4.557900
 H    0.080744   20.554096   -3.570996
 H   -2.254903   22.470194   -3.009839
 H   -1.834863   21.078389   -2.011843
 H   -0.725763   22.442887   -2.134069
 H   -0.707640   19.762786   -7.856504
 H   -1.235077   21.298013   -7.142127
 H   -3.333822   22.006398   -8.008735
 H   -5.630788   21.543769   -8.745901
 H   -7.194328   19.843144   -9.460865
 H   -6.953727   18.226430   -9.187099
 H   -4.993522   17.355590   -8.090008
 H   -2.681823   17.824925   -7.359460
