46 
6gjr_ligand_aiqm1.xyz
 O    0.793023   16.389944   -6.094453
 C   -0.042130   17.273146   -5.975038
 N   -0.895058   17.319924   -4.884252
 C   -0.952141   16.109473   -4.096350
 C   -1.646063   14.975689   -4.829731
 O   -2.214558   15.080346   -5.887472
 O   -1.545325   13.837722   -4.137913
 C   -2.144032   12.689062   -4.768576
 C   -1.908494   11.519609   -3.845707
 N   -0.199236   18.275074   -6.896200
 C    0.686095   18.267902   -8.038679
 C    1.838581   19.209918   -7.888384
 N    2.165503   19.842699   -6.762903
 N    3.252732   20.504680   -7.137528
 C    4.015098   21.352012   -6.245096
 N    3.589478   20.315179   -8.395098
 N    2.694493   19.489591   -8.894804
 C   -1.005832   19.456142   -6.641196
 C   -2.491108   19.289994   -6.897191
 C   -3.063408   18.100111   -7.355966
 C   -4.435930   18.001405   -7.569469
 C   -5.277025   19.090100   -7.334269
 N   -6.666365   18.970978   -7.477890
 C   -4.707513   20.284156   -6.881987
 C   -3.339055   20.376360   -6.665907
 H   -1.791911   17.746201   -5.058273
 H   -1.490878   16.300402   -3.166909
 H    0.055014   15.786112   -3.848771
 H   -1.679501   12.546452   -5.743422
 H   -3.205181   12.888595   -4.921690
 H   -0.840545   11.359429   -3.701877
 H   -2.369107   11.700482   -2.874480
 H   -2.342277   10.616906   -4.275506
 H    0.129894   18.529403   -8.943942
 H    1.081285   17.259396   -8.149581
 H    3.372997   22.144541   -5.869214
 H    4.384204   20.755420   -5.415580
 H    4.839165   21.763034   -6.820720
 H   -0.625856   20.255310   -7.280881
 H   -0.845145   19.792291   -5.611348
 H   -2.439380   17.232695   -7.528600
 H   -4.854464   17.059203   -7.904191
 H   -6.942221   18.254527   -8.131759
 H   -7.125571   19.843389   -7.689725
 H   -5.341097   21.141809   -6.686021
 H   -2.929757   21.314787   -6.307652
