56 
6gl3_ligand_ani-2x.xyz
 C   -7.826516   -2.545107    0.564309
 C   -6.191445   -1.047469   -0.257502
 C   -5.296676   -1.368499    0.756166
 C   -4.050737   -0.748520    0.804756
 C   -3.686691    0.187009   -0.155176
 C   -1.594258    1.026350    0.916578
 O   -1.802918    0.588655    2.038531
 N   -0.491959    1.834326    0.632724
 C    0.295235    1.651268   -0.583417
 C    1.297628    0.492574   -0.457282
 C    1.372724    0.984209    1.990226
 C    0.381554    2.121590    1.764784
 C    3.419500    0.374130    0.819289
 N    6.181509   -0.096792    1.136046
 C    5.515279   -0.448961    0.030295
 C    4.148712   -0.261637   -0.238835
 C   -4.229239    1.528038   -2.253366
 C   -5.824288   -0.103021   -1.221238
 O   -7.430777   -1.589965   -0.394984
 N   -2.410850    0.799952   -0.170789
 C    0.612087   -0.874336   -0.496774
 N    2.099849    0.692173    0.755753
 N    4.055385    0.703924    1.949449
 C    5.379277    0.469510    2.039398
 N    5.972919    0.881433    3.196449
 C    3.989529   -0.860057   -1.530901
 N    5.128094   -1.338750   -1.990054
 N    6.048633   -1.078735   -1.044620
 C    7.424232   -1.472001   -1.226639
 C   -4.588024    0.517513   -1.191304
 H   -7.161396   -3.418845    0.559407
 H   -7.845452   -2.115638    1.574771
 H   -8.834022   -2.855484    0.283934
 H   -5.549234   -2.093972    1.522641
 H   -3.355076   -0.987189    1.599773
 H   -0.347006    1.502283   -1.456176
 H    0.851183    2.581260   -0.741931
 H    1.986498    0.573003   -1.301441
 H    0.823694    0.094024    2.329993
 H    2.103005    1.245131    2.755663
 H   -0.229416    2.276611    2.656307
 H    0.919362    3.049206    1.537535
 H   -3.980753    2.508643   -1.826805
 H   -5.074336    1.676584   -2.931909
 H   -3.379699    1.200596   -2.866767
 H   -6.540949    0.133265   -2.004520
 H   -2.238611    1.383679   -0.972378
 H    1.348334   -1.683203   -0.467458
 H   -0.071833   -1.011968    0.348752
 H    0.026130   -0.972653   -1.417904
 H    5.361677    1.078189    3.973897
 H    6.888369    0.508699    3.396094
 H    3.098624   -0.988160   -2.134531
 H    7.840347   -0.976280   -2.107332
 H    7.974771   -1.171576   -0.333020
 H    7.488120   -2.555006   -1.359367
