56 
6gl3_ligand_dft.xyz
 C    8.208213   -0.388178   -2.047150
 C    6.297867   -0.693393   -0.679366
 C    5.803932    0.579664   -0.947751
 C    4.614864    1.003166   -0.356425
 C    3.901319    0.157265    0.486014
 C    1.801753    1.498502    0.696106
 O    2.019555    2.279918   -0.217942
 N    0.622474    1.533316    1.439552
 C   -0.062964    0.327119    1.880994
 C   -1.008170   -0.244205    0.809243
 C   -1.285799    2.079678   -0.022976
 C   -0.340653    2.564041    1.067986
 C   -3.192173    0.540187   -0.028379
 N   -5.901987    0.234288   -0.774165
 C   -5.135533   -0.794173   -0.390733
 C   -3.782644   -0.760265    0.001214
 C    3.620773   -2.081558    1.644384
 C    5.581834   -1.538473    0.172033
 O    7.449293   -1.207397   -1.188853
 N    2.695910    0.541885    1.117924
 C   -0.257337   -0.909483   -0.348221
 N   -1.909086    0.808829    0.350381
 N   -3.927765    1.572832   -0.441650
 C   -5.220541    1.376672   -0.773946
 N   -5.906505    2.505892   -1.123439
 C   -3.473384   -2.134004    0.244050
 N   -4.514918   -2.909318    0.042474
 N   -5.527445   -2.087180   -0.340158
 C   -6.832924   -2.617598   -0.646579
 C    4.387011   -1.138303    0.751459
 H    7.644120   -0.115022   -2.948711
 H    8.541996    0.527248   -1.541180
 H    9.080261   -0.977256   -2.334481
 H    6.330059    1.262299   -1.604839
 H    4.228046    1.992073   -0.560627
 H    0.644599   -0.452661    2.168765
 H   -0.648121    0.583545    2.771750
 H   -1.616981   -0.985709    1.328438
 H   -0.723229    1.960286   -0.958219
 H   -2.081715    2.802115   -0.192823
 H    0.202386    3.442677    0.721705
 H   -0.909147    2.826534    1.968137
 H    3.590137   -1.734193    2.686716
 H    4.082921   -3.071551    1.652455
 H    2.584389   -2.197371    1.303573
 H    5.980187   -2.530582    0.362245
 H    2.517443    0.116757    2.012578
 H   -0.967680   -1.304648   -1.080549
 H    0.400500   -0.200469   -0.860416
 H    0.359822   -1.738219    0.015494
 H   -5.353060    3.308504   -1.375720
 H   -6.778593    2.368468   -1.608899
 H   -2.541541   -2.597009    0.536473
 H   -7.271577   -3.079448    0.241887
 H   -7.457414   -1.786281   -0.976557
 H   -6.755994   -3.364021   -1.441007
