56 
6gl3_ligand_xtb.xyz
 C   -8.108867   -2.188635    0.520258
 C   -6.263767   -0.929676   -0.296668
 C   -5.535675   -1.051172    0.877873
 C   -4.286319   -0.464378    0.980119
 C   -3.741428    0.253277   -0.074927
 C   -1.662603    0.985450    1.091560
 O   -1.974551    0.673539    2.223639
 N   -0.454587    1.607298    0.824798
 C    0.295797    1.488122   -0.401932
 C    1.269693    0.287744   -0.367008
 C    1.395305    0.598919    2.066741
 C    0.443346    1.787198    1.951898
 C    3.437372    0.227104    0.805154
 N    6.239371    0.071939    1.032550
 C    5.600727   -0.254083   -0.091162
 C    4.197557   -0.214193   -0.309820
 C   -3.923952    1.144130   -2.444295
 C   -5.713657   -0.211664   -1.357608
 O   -7.502630   -1.461238   -0.518720
 N   -2.469047    0.836063   -0.005609
 C    0.518294   -1.044156   -0.437822
 N    2.093847    0.377940    0.816767
 N    4.076645    0.512936    1.937174
 C    5.410105    0.439154    2.000491
 N    5.965577    0.830281    3.176901
 C    4.066989   -0.713875   -1.628939
 N    5.235526   -1.001905   -2.146163
 N    6.167804   -0.718067   -1.219845
 C    7.564407   -0.923549   -1.462018
 C   -4.469203    0.380711   -1.269197
 H   -7.518905   -3.070146    0.792504
 H   -8.264258   -1.568042    1.408936
 H   -9.074715   -2.508821    0.132188
 H   -5.920870   -1.596378    1.724307
 H   -3.729457   -0.553689    1.897085
 H   -0.350802    1.381648   -1.272536
 H    0.876942    2.409922   -0.522065
 H    1.921404    0.384744   -1.237209
 H    0.815949   -0.294369    2.327146
 H    2.149988    0.776241    2.831810
 H   -0.157564    1.869996    2.857230
 H    1.004994    2.712308    1.793871
 H   -3.710374    2.179988   -2.176755
 H   -4.651257    1.150705   -3.251330
 H   -3.009565    0.684142   -2.823028
 H   -6.293851   -0.127290   -2.263493
 H   -2.189318    1.310772   -0.847599
 H    1.219361   -1.868695   -0.332601
 H   -0.223575   -1.115878    0.353832
 H    0.010593   -1.139862   -1.394584
 H    5.355529    0.890281    3.972439
 H    6.929361    0.589215    3.325092
 H    3.188947   -0.901672   -2.215615
 H    7.894133   -0.315681   -2.306352
 H    8.098029   -0.631017   -0.560164
 H    7.757309   -1.973638   -1.688198
