49 
6gl9_ligand_xtb.xyz
 C   43.863670   -0.260551   67.593898
 C   39.899021    0.886039   68.119409
 C   40.185974    1.640949   69.218209
 N   41.521454    1.588382   69.480526
 C   42.144265   -1.870908   65.006662
 C   42.042288   -2.758173   63.852055
 N   41.080948   -1.213245   65.591603
 C   41.069341   -3.745688   63.761474
 C   41.005461   -4.598650   62.657176
 C   41.953186   -4.448454   61.641129
 C   42.941236   -3.487886   61.742710
 N   43.281984   -1.636527   65.597707
 C   39.958289   -5.600525   62.623595
 C   39.747383   -6.504124   61.654075
 C   38.692105   -7.426821   61.724040
 N   37.828032   -8.181029   61.774118
 C   42.993523   -2.646047   62.838759
 C   42.996022   -0.801404   66.639088
 N   43.432909    0.534258   68.545313
 C   41.606831   -0.516370   66.650485
 C   41.123500    0.325001   67.662442
 C   42.125529    0.794359   68.556290
 C   39.740077   -1.142290   65.053127
 C   38.721486   -1.768940   66.008597
 C   37.322261   -1.700984   65.404475
 C   36.949082   -0.259071   65.074098
 C   37.960983    0.343957   64.104356
 C   39.366871    0.299459   64.695708
 H   44.919854   -0.482212   67.576920
 H   38.917514    0.758607   67.707962
 H   39.522363    2.215658   69.834998
 H   42.004450    2.048465   70.232708
 H   40.365941   -3.886058   64.570017
 H   41.926631   -5.089924   60.774003
 H   43.677795   -3.393166   60.958819
 H   39.288840   -5.602053   63.476218
 H   40.366708   -6.576225   60.770853
 H   43.764937   -1.898177   62.930381
 H   39.745887   -1.720463   64.121236
 H   38.996311   -2.808737   66.204100
 H   38.741168   -1.244111   66.962965
 H   36.599974   -2.123974   66.104994
 H   37.290953   -2.299084   64.490079
 H   36.926706    0.332069   65.992288
 H   35.950726   -0.227330   64.634287
 H   37.692830    1.377559   63.878714
 H   37.942052   -0.218393   63.167419
 H   40.090726    0.685991   63.973630
 H   39.414921    0.929842   65.582287
