49 
6gl9_ligand_aiqm1.xyz
 C   43.879406   -0.164630   67.596474
 C   39.859391    0.869819   68.110848
 C   40.123813    1.633739   69.219448
 N   41.469666    1.615044   69.477255
 C   42.214416   -1.844770   65.004993
 C   42.103446   -2.752865   63.851579
 N   41.133309   -1.199736   65.587311
 C   41.077847   -3.694194   63.742606
 C   41.002159   -4.562327   62.649942
 C   41.985365   -4.487859   61.653037
 C   43.025346   -3.567053   61.771649
 N   43.354987   -1.575178   65.596035
 C   39.882497   -5.507021   62.616849
 C   39.637529   -6.427072   61.667417
 C   38.497037   -7.289270   61.751472
 N   37.572673   -7.987073   61.815947
 C   43.090904   -2.708358   62.860145
 C   43.022659   -0.731844   66.633135
 N   43.436163    0.622807   68.557670
 C   41.642773   -0.481970   66.649183
 C   41.124331    0.348344   67.663271
 C   42.104816    0.838907   68.551001
 C   39.770061   -1.142385   65.040232
 C   38.777693   -1.838538   65.965484
 C   37.369648   -1.790840   65.378775
 C   36.953464   -0.351467   65.081230
 C   37.942250    0.307631   64.121147
 C   39.358052    0.287103   64.696794
 H   44.939266   -0.375766   67.560544
 H   38.878623    0.714846   67.697163
 H   39.451942    2.192550   69.847952
 H   41.941588    2.078229   70.231985
 H   40.327813   -3.781433   64.518692
 H   41.952939   -5.145535   60.793957
 H   43.791974   -3.527031   61.009190
 H   39.196165   -5.432870   63.455746
 H   40.280016   -6.558967   60.808444
 H   43.908177   -2.009168   62.967415
 H   39.799281   -1.690445   64.104603
 H   39.097851   -2.872956   66.120985
 H   38.794955   -1.356596   66.943759
 H   36.663872   -2.262716   66.062999
 H   37.348316   -2.370273   64.448327
 H   36.929903    0.217193   66.018632
 H   35.945375   -0.326352   64.665070
 H   37.643954    1.334512   63.906923
 H   37.928749   -0.233347   63.168744
 H   40.073540    0.704521   63.983243
 H   39.395001    0.905658   65.590699
