46 
6gla_ligand_aiqm1.xyz
 C   -1.733818   22.568763   -3.034578
 C    2.160647   22.005504   -4.451780
 C    1.774275   21.045246   -5.351306
 N    0.419329   20.849230   -5.261667
 C    0.244412   24.797085   -1.163700
 C    0.417641   25.830687   -0.159770
 N    1.227206   24.231619   -1.962248
 C   -0.537862   26.645099    0.375253
 C    0.126125   27.464307    1.331880
 C    1.437756   27.086856    1.323051
 C    2.615258   27.495769    2.048039
 N   -0.960166   24.318168   -1.407799
 C    2.641948   28.533911    2.900041
 C    3.840127   28.892546    3.596249
 C    2.668913   24.516162   -2.079683
 N    4.810297   29.187773    4.159373
 O    1.627282   26.082605    0.410731
 C   -0.774966   23.387229   -2.402281
 N   -1.410897   21.711242   -3.983457
 C    0.574698   23.320320   -2.760308
 C    0.967608   22.421182   -3.769274
 C   -0.100101   21.673813   -4.305192
 C    3.473219   23.957447   -0.898907
 C    4.839421   24.656641   -0.799057
 C    5.349232   25.025867   -2.189995
 C    4.443011   26.085560   -2.846600
 C    2.985451   25.979318   -2.358508
 H   -2.772930   22.633600   -2.742120
 H    3.169937   22.350174   -4.318674
 H    2.364112   20.481112   -6.053084
 H   -0.129038   20.204392   -5.800130
 H   -1.578446   26.629594    0.107262
 H   -0.315875   28.227485    1.950593
 H    3.512689   26.912402    1.876423
 H    1.766386   29.136918    3.092600
 H    2.971158   23.974170   -2.971296
 H    2.913213   24.078982    0.028527
 H    3.605709   22.883780   -1.064290
 H    5.551255   24.010459   -0.282744
 H    4.751697   25.571116   -0.203125
 H    5.376633   24.121468   -2.806905
 H    6.374295   25.395418   -2.139197
 H    4.819811   27.084047   -2.620291
 H    4.480917   25.969043   -3.931737
 H    2.858839   26.565488   -1.447314
 H    2.295592   26.374403   -3.108006
