46 
6gla_ligand_xtb.xyz
 C   -1.759297   22.695170   -3.073251
 C    2.066073   22.013854   -4.569807
 C    1.625455   21.108858   -5.490698
 N    0.273870   20.965115   -5.391511
 C    0.345593   24.769905   -1.171001
 C    0.534467   25.731774   -0.126088
 N    1.289148   24.191110   -1.999341
 C   -0.466311   26.303555    0.639018
 C    0.166101   27.167289    1.536412
 C    1.523099   27.082100    1.279811
 C    2.657997   27.716200    1.861258
 N   -0.873598   24.341079   -1.412573
 C    2.606705   28.609388    2.869044
 C    3.762867   29.197403    3.395609
 C    2.718082   24.404640   -2.091797
 N    4.707630   29.684370    3.831695
 O    1.732778   26.203714    0.264927
 C   -0.765509   23.446800   -2.429603
 N   -1.472999   21.868227   -4.050067
 C    0.594638   23.340710   -2.812583
 C    0.925393   22.463614   -3.851791
 C   -0.189198   21.774689   -4.402681
 C    3.450059   23.970936   -0.809640
 C    4.740865   24.770480   -0.621178
 C    5.410886   25.012546   -1.969394
 C    4.550042   25.933009   -2.847433
 C    3.064905   25.843874   -2.478662
 H   -2.795700   22.774489   -2.783155
 H    3.088378   22.308621   -4.436212
 H    2.188500   20.553344   -6.215411
 H   -0.306593   20.362259   -5.948901
 H   -1.510613   26.099275    0.534822
 H   -0.304368   27.777517    2.279777
 H    3.617039   27.439072    1.442562
 H    1.671150   28.913253    3.316556
 H    3.045431   23.765697   -2.914766
 H    2.803586   24.107490    0.056807
 H    3.679938   22.905360   -0.879241
 H    5.412797   24.225322    0.043307
 H    4.521521   25.730511   -0.153259
 H    5.557854   24.049823   -2.463612
 H    6.396406   25.456753   -1.824209
 H    4.875977   26.968004   -2.734017
 H    4.686292   25.662650   -3.896208
 H    2.844610   26.513977   -1.650527
 H    2.450051   26.150174   -3.327988
