24 
6gmq_ligand_ani-2x.xyz
 C   36.737851   57.000721    6.278482
 C   36.990488   58.561876    7.863223
 C   37.307418   53.082738   11.588093
 C   37.228267   54.178516   10.556842
 C   36.462840   55.320236   10.791272
 C   36.361371   56.323215    9.836241
 C   37.024325   56.187296    8.615741
 C   37.789098   55.045787    8.369054
 C   37.892646   54.056181    9.336765
 C   36.687125   58.220539    5.658213
 C   36.852845   59.215603    6.667836
 N   36.922079   57.205568    7.628752
 O   38.524483   52.377139   11.436216
 H   36.626222   55.997838    5.890253
 H   37.165693   58.933510    8.863305
 H   36.448664   52.401440   11.464473
 H   37.225779   53.522811   12.594425
 H   35.940906   55.432882   11.740055
 H   35.754132   57.204639   10.025275
 H   38.319639   54.947523    7.425010
 H   38.498116   53.173789    9.153057
 H   36.541923   58.388847    4.598575
 H   36.873253   60.288581    6.524564
 H   38.506138   51.625424   12.039579
