41 
6gvg_ligand_aiqm1.xyz
 C  -15.759129  146.359306   26.919628
 C  -15.291297  143.999948   26.753540
 C  -15.124644  145.301914   26.281243
 C  -14.009854  144.021980   25.027701
 C  -17.296245  147.125673   28.736391
 C  -18.013737  148.977250   29.774522
 C  -16.860860  148.411570   29.203665
 C  -16.075716  143.669525   27.844001
 C  -16.708803  144.736044   28.472574
 C  -16.554163  146.065347   28.032722
 N  -14.292139  145.273974   25.156186
 O  -14.561378  143.166696   25.934674
 N  -13.172870  143.438657   24.122332
 N  -19.010564  148.082024   29.637334
 N  -18.576094  146.951038   29.026576
 C  -15.692926  149.189545   29.306735
 N  -15.747819  150.383792   29.883369
 C  -16.937602  150.812418   30.373122
 N  -18.103994  150.179587   30.355747
 C  -20.384324  148.206766   30.131510
 C  -20.594260  147.246397   31.293381
 C  -21.363107  147.953793   28.996218
 C  -14.356877  148.743031   28.801740
 N  -16.904353  152.025375   30.999737
 H  -15.647696  147.370119   26.554443
 H  -16.196599  142.650612   28.184129
 H  -17.355968  144.546280   29.318014
 H  -12.982604  144.011412   23.317207
 H  -13.381352  142.477263   23.909827
 H  -20.462279  149.236174   30.478503
 H  -20.466639  146.217823   30.950327
 H  -19.879938  147.439302   32.094375
 H  -21.604286  147.357314   31.689224
 H  -21.196969  148.646184   28.170734
 H  -21.239101  146.935807   28.625323
 H  -22.385273  148.072405   29.357489
 H  -14.186427  147.686865   29.009240
 H  -14.295206  148.874831   27.720340
 H  -13.577979  149.346465   29.263498
 H  -16.110388  152.600505   30.780459
 H  -17.789941  152.485791   31.114421
