41 
6gvg_ligand_xtb.xyz
 C  -15.785057  146.349153   26.973454
 C  -15.330760  143.978007   26.772949
 C  -15.137812  145.304004   26.339267
 C  -13.978396  144.037844   25.106534
 C  -17.329187  147.094816   28.752971
 C  -18.023758  148.973517   29.755450
 C  -16.881991  148.399356   29.130327
 C  -16.165787  143.656384   27.821148
 C  -16.804531  144.710502   28.448654
 C  -16.613982  146.038166   28.046033
 N  -14.266382  145.286574   25.268030
 O  -14.577125  143.167506   25.965150
 N  -13.100345  143.529512   24.211719
 N  -18.998867  148.048358   29.732595
 N  -18.577582  146.921639   29.132057
 C  -15.718322  149.180328   29.184236
 N  -15.779487  150.391276   29.702952
 C  -16.941926  150.857342   30.189936
 N  -18.087028  150.192114   30.285833
 C  -20.346718  148.179978   30.232306
 C  -20.607448  147.104948   31.284369
 C  -21.334703  148.076275   29.072569
 C  -14.376050  148.719345   28.721575
 N  -16.928662  152.143041   30.615399
 H  -15.668543  147.361490   26.626138
 H  -16.311290  142.634758   28.133359
 H  -17.473127  144.520713   29.273115
 H  -12.848044  144.140636   23.454696
 H  -13.174703  142.546464   24.011831
 H  -20.394025  149.176618   30.684151
 H  -20.485927  146.122509   30.835304
 H  -19.904503  147.202181   32.108543
 H  -21.617794  147.197269   31.672907
 H  -21.146901  148.861730   28.344219
 H  -21.219894  147.112015   28.583733
 H  -22.353519  148.173044   29.437312
 H  -14.271729  147.644364   28.842668
 H  -14.244452  148.961902   27.667884
 H  -13.606508  149.242161   29.283474
 H  -16.031537  152.578467   30.732723
 H  -17.706998  152.460495   31.164627
