41 
6gvg_ligand_ani-2x.xyz
 C  -15.765556  146.354390   26.947284
 C  -15.323540  144.008613   26.737841
 C  -15.095195  145.315252   26.313654
 C  -13.905770  144.045780   25.122155
 C  -17.343005  147.114823   28.716437
 C  -18.018352  148.998012   29.723692
 C  -16.883185  148.417617   29.124209
 C  -16.192556  143.662024   27.752534
 C  -16.858419  144.713736   28.374061
 C  -16.632969  146.045699   27.997907
 N  -14.170624  145.302445   25.265812
 O  -14.543040  143.179473   25.956872
 N  -13.024947  143.479601   24.247096
 N  -19.007533  148.069605   29.678098
 N  -18.597410  146.927162   29.094114
 C  -15.716023  149.209361   29.189933
 N  -15.763106  150.440755   29.688655
 C  -16.947399  150.887868   30.174216
 N  -18.101466  150.223915   30.243221
 C  -20.358870  148.179039   30.223275
 C  -20.559789  147.150299   31.331843
 C  -21.387891  148.001087   29.110859
 C  -14.381539  148.714549   28.743048
 N  -16.957694  152.169618   30.640598
 H  -15.622377  147.381058   26.634841
 H  -16.354219  142.630637   28.047271
 H  -17.570571  144.514505   29.170119
 H  -12.759861  144.086382   23.485425
 H  -13.216429  142.525656   23.980268
 H  -20.418728  149.190741   30.632645
 H  -20.418128  146.140274   30.931559
 H  -19.847248  147.305750   32.146232
 H  -21.572375  147.230228   31.741348
 H  -21.262334  148.760157   28.334170
 H  -21.276810  147.011565   28.654519
 H  -22.400806  148.090255   29.517793
 H  -14.287827  147.637508   28.910662
 H  -14.227253  148.903606   27.673604
 H  -13.592152  149.245752   29.281236
 H  -16.058176  152.584751   30.828280
 H  -17.730228  152.427255   31.234815
