38 
6gzy_ligand_ani-2x.xyz
 C  144.353818  116.683551   40.594233
 O  145.356751  117.012946   39.960868
 C  142.947497  117.022336   38.642882
 C  144.893830  115.286069   44.583736
 C  147.241150  115.513891   44.618805
 C  143.320733  115.813191   42.798031
 C  146.747088  115.240203   46.064428
 C  145.259516  114.800022   45.938417
 C  142.968528  118.522611   38.337825
 C  141.726102  119.289998   38.783323
 C  141.454685  119.287775   40.268500
 C  142.363851  119.624402   42.396672
 C  144.470676  116.221776   42.005183
 C  145.748011  116.161655   42.538518
 C  145.963953  115.691072   43.838203
 N  143.625247  115.336585   44.070091
 N  143.119171  116.692132   40.041843
 O  142.136118  115.857599   42.455311
 O  140.376578  119.077265   40.770949
 O  142.554031  119.596070   40.977364
 H  143.769206  116.552792   38.094972
 H  142.011812  116.568366   38.296577
 H  147.821924  114.672018   44.219241
 H  147.888119  116.395751   44.560447
 H  146.806549  116.164641   46.648524
 H  147.357480  114.491533   46.577001
 H  145.152227  113.708061   45.999211
 H  144.629369  115.227543   46.728588
 H  143.062777  118.644211   37.252271
 H  143.864697  118.954979   38.789713
 H  140.824167  118.905474   38.299145
 H  141.828061  120.340696   38.482999
 H  141.751483  120.483166   42.687241
 H  141.874539  118.706570   42.727185
 H  143.364396  119.709678   42.822909
 H  146.560600  116.488974   41.892661
 H  142.822088  115.042512   44.611887
 H  142.330971  116.472987   40.639950
