38 
6gzy_ligand_aiqm1.xyz
 C  144.274761  116.615302   40.364093
 O  145.238140  117.154860   39.831272
 C  142.830339  117.022959   38.456445
 C  144.703616  115.302859   44.394401
 C  146.890205  116.104943   44.739695
 C  143.300739  115.377980   42.415514
 C  146.229636  115.834011   46.110423
 C  145.012612  114.932971   45.814216
 C  142.741877  118.550103   38.416126
 C  141.637286  119.153674   39.283399
 C  141.879117  119.085638   40.771075
 C  143.479214  119.257371   42.471622
 C  144.385968  116.093711   41.766523
 C  145.552804  116.354839   42.434603
 C  145.728478  115.960608   43.785317
 N  143.551141  115.021713   43.737571
 N  143.074007  116.480760   39.778546
 O  142.214860  115.068345   41.920874
 O  141.040220  118.833017   41.598888
 O  143.156293  119.374219   41.084076
 H  143.640921  116.702987   37.797827
 H  141.902447  116.584083   38.087615
 H  147.661203  115.360933   44.519160
 H  147.359993  117.086193   44.697206
 H  145.871432  116.777117   46.524384
 H  146.911559  115.388669   46.829168
 H  145.268749  113.871900   45.866123
 H  144.174355  115.113199   46.486186
 H  142.556892  118.835790   37.378282
 H  143.702632  118.967593   38.705611
 H  140.673813  118.675039   39.099679
 H  141.526299  120.216767   39.042296
 H  143.040951  120.078675   43.036114
 H  143.102504  118.315594   42.864928
 H  144.564489  119.280947   42.525051
 H  146.322764  116.891877   41.892167
 H  142.792612  114.537746   44.191067
 H  142.352872  115.996109   40.298157
