81 
6h14_ligand_ani-2x.xyz
 O   -9.761913   -2.383775   -2.018855
 C   -8.809636   -1.682820   -1.723985
 N   -8.861293   -0.353435   -1.391297
 C  -10.085768    0.369851   -1.152647
 C  -10.156731    0.838203    0.302767
 C   -8.876033    1.586329    0.691483
 C   -7.646839    0.704413    0.463508
 C   -7.585315    0.224540   -0.996379
 C   -6.651574   -0.932356   -1.249535
 C   -7.367653   -2.053310   -1.632577
 C   -6.761812   -3.285115   -1.832779
 C   -5.388088   -3.358016   -1.631717
 C   -4.643999   -2.235278   -1.249044
 C   -5.267851   -1.002803   -1.066691
 N   -4.586232    0.188335   -0.751439
 C   -3.335800    0.305867   -0.179109
 O   -2.619800   -0.642106    0.091652
 N   -2.989903    1.626157    0.054050
 C   -1.809129    2.113910    0.628427
 C   -0.777817    1.279532    1.057944
 N   -1.774361    3.443195    0.720937
 C   -0.677749    3.988486    1.258267
 C    0.406930    3.259170    1.716871
 C    0.349004    1.868960    1.611121
 C    1.462316    1.031231    2.071907
 C    1.628737   -0.333718    2.016970
 N    2.573732    1.564140    2.650968
 N    3.392183    0.607291    2.953183
 N    2.841274   -0.548773    2.581360
 C    3.611817   -1.783836    2.650476
 C    4.577520   -1.935523    1.471790
 N    5.601790   -0.893211    1.537889
 C    6.452601   -0.677990    0.445958
 C    6.352255    0.469438   -0.326129
 C    5.367608    1.567093    0.051640
 C    5.513083    2.842969   -0.776374
 C    5.672505    2.501443   -2.254277
 C    6.976003    1.732877   -2.458281
 C    7.126307    0.549364   -1.517139
 N    8.003774   -0.359131   -1.884364
 C    8.183769   -1.438473   -1.071593
 C    7.452131   -1.639926    0.122367
 C    7.752679   -2.761376    0.945316
 C    8.706281   -3.668087    0.558690
 C    9.405032   -3.490637   -0.659222
 C    9.152239   -2.404753   -1.452741
 H  -10.135026    1.230722   -1.833615
 H  -10.900132   -0.311248   -1.405925
 H  -11.042050    1.468107    0.448532
 H  -10.272048   -0.040433    0.949265
 H   -8.789574    2.506308    0.095315
 H   -8.923197    1.897058    1.741048
 H   -7.707555   -0.188460    1.096179
 H   -6.718994    1.221813    0.727999
 H   -7.365952    1.082564   -1.651758
 H   -7.352209   -4.147753   -2.128915
 H   -4.869991   -4.303354   -1.769544
 H   -3.575083   -2.312992   -1.092173
 H   -5.115025    1.024385   -0.946088
 H   -3.629655    2.370714   -0.184132
 H   -0.888808    0.209522    0.948731
 H   -0.673227    5.074376    1.322799
 H    1.277689    3.742148    2.148169
 H    1.014464   -1.142856    1.644399
 H    4.163170   -1.782968    3.593841
 H    2.895690   -2.610318    2.662790
 H    5.038964   -2.927476    1.505636
 H    4.000680   -1.888993    0.532327
 H    5.192030   -0.028290    1.871491
 H    4.348930    1.166937   -0.062395
 H    5.467633    1.816454    1.117577
 H    4.647884    3.494589   -0.607151
 H    6.402629    3.390289   -0.438004
 H    5.669014    3.405244   -2.873993
 H    4.825946    1.882014   -2.579289
 H    7.074222    1.360019   -3.481050
 H    7.831634    2.400722   -2.287283
 H    7.221666   -2.873059    1.887333
 H    8.925990   -4.527502    1.185195
 H   10.152927   -4.221071   -0.958009
 H    9.680789   -2.235553   -2.385769
