81 
6h14_ligand_dft.xyz
 O    9.367280   -2.939283   -0.049457
 C    8.424395   -2.191141    0.130129
 N    8.481625   -0.924076    0.660018
 C    9.709628   -0.215336    0.938885
 C    9.821996    1.026945    0.050722
 C    8.540133    1.864134    0.118731
 C    7.315426    1.023932   -0.260610
 C    7.211982   -0.216266    0.643784
 C    6.264049   -1.284663    0.149795
 C    6.983862   -2.427714   -0.167250
 C    6.383389   -3.561703   -0.689556
 C    5.006048   -3.518479   -0.878894
 C    4.256834   -2.389027   -0.545561
 C    4.880764   -1.249806   -0.023216
 N    4.185513   -0.089661    0.370305
 C    2.927801    0.307742   -0.040024
 O    2.220081   -0.342735   -0.789147
 N    2.566201    1.527754    0.497358
 C    1.371953    2.234693    0.313172
 C    0.333663    1.806355   -0.514940
 N    1.342625    3.368816    1.015800
 C    0.248998    4.126254    0.910510
 C   -0.845332    3.802679    0.124297
 C   -0.799080    2.610728   -0.604691
 C   -1.937913    2.204829   -1.433455
 C   -2.187302    1.007641   -2.071412
 N   -3.004670    3.023528   -1.649008
 N   -3.881550    2.403039   -2.372710
 N   -3.396539    1.177420   -2.643165
 C   -4.252303    0.191714   -3.287218
 C   -4.985893   -0.657932   -2.252857
 N   -5.897382    0.171635   -1.465078
 C   -6.196753   -0.339983   -0.180622
 C   -5.602141    0.163582    0.961520
 C   -4.584011    1.283944    0.865730
 C   -4.117660    1.840436    2.213207
 C   -3.919898    0.724492    3.234698
 C   -5.251664    0.017510    3.480955
 C   -5.900583   -0.471016    2.204355
 N   -6.704836   -1.504915    2.325253
 C   -7.321575   -1.980213    1.210599
 C   -7.117799   -1.420570   -0.075377
 C   -7.842917   -1.934245   -1.180441
 C   -8.702593   -2.989663   -1.015826
 C   -8.877484   -3.576019    0.260232
 C   -8.209076   -3.079071    1.348790
 H    9.727674    0.077379    1.998577
 H   10.527544   -0.918630    0.766933
 H   10.687397    1.623018    0.360040
 H    9.995243    0.709053   -0.984821
 H    8.412869    2.259168    1.137058
 H    8.615491    2.729041   -0.548506
 H    7.404945    0.680425   -1.298321
 H    6.398831    1.621960   -0.197753
 H    6.966214    0.105210    1.670810
 H    6.976435   -4.436169   -0.934985
 H    4.488423   -4.381525   -1.286133
 H    3.186762   -2.380732   -0.698506
 H    4.707278    0.543201    0.956629
 H    3.184856    2.011299    1.134043
 H    0.433241    0.878198   -1.059432
 H    0.255146    5.044497    1.492836
 H   -1.713403    4.448798    0.070275
 H   -1.630830    0.086552   -2.151606
 H   -4.959551    0.750141   -3.903979
 H   -3.633218   -0.435834   -3.932403
 H   -5.540440   -1.441808   -2.780630
 H   -4.240701   -1.163261   -1.617499
 H   -5.529371    1.114750   -1.396914
 H   -3.709387    0.903630    0.317677
 H   -4.971834    2.115433    0.265807
 H   -3.193785    2.409154    2.061192
 H   -4.866234    2.544975    2.599010
 H   -3.528211    1.126996    4.175040
 H   -3.178683    0.005059    2.860518
 H   -5.144372   -0.838746    4.152412
 H   -5.943154    0.715671    3.974153
 H   -7.733118   -1.451949   -2.146495
 H   -9.262708   -3.371775   -1.864079
 H   -9.559655   -4.413229    0.375848
 H   -8.339166   -3.497175    2.341693
