40 
6h75_ligand_ani-2x.xyz
 C   -1.248592    3.868994   -0.025410
 C   -0.551913    2.576316    0.415017
 C    0.948071    2.665526    0.525591
 C    1.529571    1.300316    0.866085
 C    0.988245    0.203366   -0.084532
 C   -0.529881    0.302519   -0.285457
 C   -1.093475   -0.486047   -1.479358
 C   -1.140734   -2.017833   -1.385618
 C   -1.941177   -2.534170   -0.189313
 C    2.514070   -1.715522    0.250578
 C    2.591474   -3.153275    0.713309
 N    1.313540   -1.116209    0.430975
 O   -2.356881    4.151177    0.364862
 O   -0.558424    4.625164   -0.881874
 O   -1.096330    2.214313    1.649439
 O    2.928511    1.418194    0.777423
 O   -0.896491    1.654488   -0.594794
 O   -2.446514   -0.099911   -1.686206
 O   -1.728773   -2.509739   -2.577209
 O   -1.157230   -2.414870    0.995958
 O    3.477133   -1.124169   -0.240095
 H    1.379546    3.012752   -0.418786
 H    1.218059    3.382182    1.306107
 H    1.229357    1.028392    1.892364
 H    1.492266    0.344328   -1.050491
 H   -1.048525    0.002695    0.631206
 H   -0.500292   -0.228538   -2.374478
 H   -0.128890   -2.428257   -1.349214
 H   -2.194790   -3.584896   -0.382046
 H   -2.868218   -1.949735   -0.110020
 H    2.809973   -3.187059    1.786324
 H    3.404532   -3.649611    0.180777
 H    1.650788   -3.687385    0.540215
 H    0.552676   -1.640279    0.854185
 H   -1.132573    5.377731   -1.101837
 H   -2.009171    2.551302    1.649151
 H    3.305475    0.581447    0.442527
 H   -2.476200    0.861010   -1.565836
 H   -2.516447   -1.963525   -2.723722
 H   -1.711767   -2.631084    1.754702
