24 
6h7d_ligand_xtb.xyz
 C   -1.689703   -0.057957    0.062420
 C   -0.794909   -0.757853    1.085486
 C    0.577209   -1.042321    0.461689
 C    1.167155    0.257353   -0.097625
 C    2.480437    0.001593   -0.843024
 C   -0.968964    1.191743   -0.464555
 O   -1.761973    1.758449   -1.452017
 O   -2.902374    0.274466    0.688747
 O   -1.343755   -1.981550    1.507638
 O    1.463061   -1.565380    1.411808
 O    0.275848    0.864818   -1.020649
 O    3.070511    1.191367   -1.285621
 H   -1.865590   -0.730738   -0.791656
 H   -0.666112   -0.087097    1.951421
 H    0.433443   -1.757035   -0.365267
 H    1.353469    0.947728    0.739611
 H    3.185044   -0.473323   -0.159959
 H    2.276942   -0.672351   -1.686425
 H   -0.823412    1.902432    0.378839
 H   -1.206431    2.322472   -2.002242
 H   -3.399515    0.839672    0.085334
 H   -2.267820   -1.818578    1.732579
 H    0.992710   -2.269660    1.877192
 H    2.414529    1.661349   -1.814026
