24 
6h7d_ligand_aiqm1.xyz
 C   -1.674240   -0.052414    0.036586
 C   -0.802496   -0.739152    1.065635
 C    0.556867   -1.032340    0.458292
 C    1.175240    0.247730   -0.093793
 C    2.478528   -0.007202   -0.817692
 C   -0.956158    1.191967   -0.470765
 O   -1.770660    1.764120   -1.446473
 O   -2.896056    0.275307    0.671963
 O   -1.345543   -1.977151    1.492959
 O    1.445882   -1.550056    1.426873
 O    0.283622    0.837921   -1.049032
 O    3.064726    1.194534   -1.277996
 H   -1.836450   -0.723820   -0.813876
 H   -0.679189   -0.065497    1.922409
 H    0.416877   -1.748933   -0.364126
 H    1.343172    0.950887    0.735674
 H    3.182846   -0.461529   -0.123936
 H    2.298493   -0.704140   -1.645072
 H   -0.782615    1.903417    0.353447
 H   -1.290546    2.493753   -1.843659
 H   -3.453803    0.717268    0.027762
 H   -2.231166   -1.807840    1.822587
 H    1.003614   -2.286628    1.856957
 H    2.468856    1.579398   -1.925025
