47 
6h9b_ligand_aiqm1.xyz
 C    5.740464   53.945739   87.743744
 C    4.655760   55.265647   90.008696
 C    5.850308   55.335032   87.872268
 C    4.558019   53.882188   89.862596
 C    6.524727   56.145056   86.826147
 C    4.811665   51.807549   88.935731
 C    4.653873   49.427445   88.679101
 C    4.116087   51.703861   90.163592
 C    7.632501   61.022563   86.911942
 N    3.971333   52.967363   90.711433
 C    7.038097   58.652237   86.853377
 C    5.709748   60.288544   85.648676
 N    8.951888   59.474984   88.148270
 C    7.887148   59.687863   87.315361
 C    6.570260   61.317986   86.096349
 C    5.309288   55.973301   89.006096
 C    5.095901   53.213152   88.741516
 C   10.346749   58.013613   89.474568
 C    5.080119   50.657142   88.191295
 C    3.686293   50.471155   90.656785
 C    3.966327   49.341003   89.896286
 C    6.438142   55.824781   85.524292
 C    3.325695   53.316294   91.955220
 C    5.938700   58.986801   86.018161
 C    9.185643   58.242853   88.547072
 C    8.389610   57.136990   88.131933
 C    7.330950   57.318319   87.278083
 H    6.167878   53.446820   86.881853
 H    4.240671   55.771772   90.869549
 H    4.854821   48.528260   88.113793
 H    8.303408   61.788951   87.277570
 H    4.867238   60.530191   85.013919
 H    6.383741   62.341148   85.796448
 H    5.399921   57.048487   89.089471
 H   11.076053   57.339872   89.019387
 H   10.825560   58.964829   89.699857
 H   10.011292   57.545669   90.402670
 H    5.612433   50.724839   87.249810
 H    3.153997   50.384179   91.594358
 H    3.643787   48.372561   90.256579
 H    6.937925   56.410328   84.761637
 H    5.845053   54.980447   85.197077
 H    4.031688   53.800432   92.634769
 H    2.489858   53.997972   91.778743
 H    2.943667   52.419167   92.436219
 H    5.275040   58.202540   85.680329
 H    8.634174   56.144271   88.491371
