20 
6hbm_ligand_aiqm1.xyz
 O    1.741632    0.450682   -1.529018
 C    2.044309   -0.187753   -0.285831
 C    0.762858   -0.392669    0.488864
 O   -0.065768   -1.330860   -0.223839
 C   -0.096535    0.876311    0.699499
 O   -0.541426    0.974853    2.043232
 C   -1.257411    0.678851   -0.285897
 O   -0.996802    1.152544   -1.587272
 C   -1.385400   -0.841334   -0.267310
 O   -2.092661   -1.181846    0.913766
 H    2.547747    0.563687   -2.032083
 H    2.720088    0.437117    0.305340
 H    2.518577   -1.155965   -0.460743
 H    1.033401   -0.823734    1.455528
 H    0.465682    1.782800    0.480159
 H   -1.245519    0.325923    2.154220
 H   -2.164102    1.163677    0.070851
 H   -0.093191    0.905597   -1.821349
 H   -1.863381   -1.265840   -1.148568
 H   -2.031895   -2.131941    1.030151
