20 
6hbm_ligand_dft.xyz
 O    2.443274    0.387367    0.030266
 C    2.006013   -0.882800   -0.428220
 C    0.492773   -0.945463   -0.353892
 O   -0.045627   -0.074610   -1.360621
 C   -0.133854   -0.497284    0.995045
 O   -1.136630   -1.386065    1.427747
 C   -0.692038    0.902295    0.652361
 O    0.240869    1.937524    0.775551
 C   -1.093078    0.675322   -0.805964
 O   -2.302608   -0.061785   -0.804297
 H    3.348106    0.541048   -0.258870
 H    2.427098   -1.683945    0.195355
 H    2.311524   -1.050268   -1.468883
 H    0.183556   -1.978740   -0.553128
 H    0.608466   -0.434424    1.793212
 H   -1.861964   -1.299283    0.788427
 H   -1.551109    1.143533    1.281018
 H    1.086813    1.619034    0.414078
 H   -1.183528    1.594434   -1.391865
 H   -2.442090   -0.383263   -1.704487
