46 
6hbn_ligand_ani-2x.xyz
 C  -20.138765   18.150700  -30.283715
 C  -18.686983   16.592062  -29.542948
 C  -18.574920   16.704294  -30.922484
 C  -19.430132   18.381760  -32.673153
 C  -18.039591   18.598184  -33.273313
 C  -23.382574   19.312389  -35.090689
 C  -22.667245   20.122580  -34.317119
 C  -23.012884   20.420199  -32.891856
 C  -22.147783   19.800856  -30.743032
 C  -23.111399   20.545045  -30.076135
 C  -23.221397   20.515744  -28.678882
 C  -22.372544   19.723439  -27.917019
 C  -21.413484   18.983395  -28.582066
 C  -21.241417   19.018888  -29.978455
 C  -19.672782   17.513306  -29.134990
 C  -20.371840   17.693153  -33.655522
 C  -17.683056   15.842293  -31.759071
 C  -17.342114   14.549493  -31.004347
 C  -16.872073   14.839461  -29.575008
 C  -17.899808   15.608099  -28.761209
 C  -20.423361   18.030396  -27.966006
 N  -19.415689   17.706186  -31.368004
 O  -22.021033   19.778604  -32.092243
 O  -18.041889   15.437737  -27.570003
 O  -20.320013   17.794877  -26.784949
 H  -19.833343   19.362685  -32.440003
 H  -17.608202   17.680134  -33.683085
 H  -18.121079   19.310939  -34.101374
 H  -17.350484   19.019080  -32.534756
 H  -24.298917   18.853436  -34.724122
 H  -23.098555   19.073083  -36.113150
 H  -21.746567   20.575889  -34.686010
 H  -24.005720   20.023710  -32.644273
 H  -22.993168   21.499947  -32.693309
 H  -23.801571   21.165881  -30.638559
 H  -23.988574   21.114062  -28.196660
 H  -22.445932   19.669932  -26.835640
 H  -20.023428   16.682538  -33.898522
 H  -21.381111   17.639862  -33.242870
 H  -20.414538   18.272263  -34.585009
 H  -16.751626   16.387601  -31.971146
 H  -18.143248   15.607515  -32.726656
 H  -16.570800   13.991110  -31.545678
 H  -18.229601   13.905040  -30.963107
 H  -15.964287   15.458050  -29.604039
 H  -16.626173   13.925799  -29.029313
