56 
6hgf_ligand_ani-2x.xyz
 C   -3.038140    1.126052   -1.708797
 C   -4.518971    1.482958   -1.737100
 C   -5.351865    0.452912   -0.994610
 C   -4.709694   -0.140220    0.200674
 C   -3.441479    0.111905    0.555006
 C   -2.910822   -0.326651    1.902106
 C   -1.569123   -1.047881    1.784585
 C   -0.531012   -0.245360    0.990715
 C   -1.127614    0.138194   -0.389730
 C   -2.469348    0.939283   -0.282892
 C    1.199088   -0.076151   -1.446266
 C   -0.106710    0.741071   -1.375772
 C    1.799965   -0.353495   -0.069966
 C    0.731533   -1.076635    0.766076
 C    1.513605   -1.620016    1.970655
 C    2.933028   -1.932201    1.406784
 C    2.921058   -1.445287   -0.062011
 C    2.316707    0.923707    0.607003
 C   -2.322656    2.310360    0.405958
 C    4.247768   -0.941790   -0.613196
 C    5.373129   -0.433332    0.268649
 O   -6.481330    0.156731   -1.334289
 O    0.143812    2.097817   -1.032108
 O    2.525848   -2.538712   -0.870571
 O    4.424941   -0.957797   -1.821121
 O    6.398243    0.114049   -0.498490
 H   -2.893403    0.194041   -2.272277
 H   -2.457488    1.904024   -2.220613
 H   -4.690555    2.462423   -1.266936
 H   -4.897787    1.552740   -2.759958
 H   -5.338664   -0.784755    0.810499
 H   -3.647354   -0.965607    2.402826
 H   -2.792261    0.564861    2.534262
 H   -1.187514   -1.285337    2.786167
 H   -1.731377   -2.007595    1.272547
 H   -0.275572    0.663542    1.555074
 H   -1.417601   -0.826792   -0.837682
 H    0.964597   -1.030145   -1.934657
 H    1.930950    0.434188   -2.090089
 H   -0.550455    0.715143   -2.383275
 H    0.419845   -1.949532    0.172503
 H    1.039346   -2.507875    2.403562
 H    1.578017   -0.867653    2.766469
 H    3.162140   -3.000852    1.407841
 H    3.699696   -1.430039    2.006687
 H    2.795420    0.713821    1.569795
 H    3.055961    1.415397   -0.034768
 H    1.513853    1.640042    0.785287
 H   -3.315062    2.728837    0.607259
 H   -1.809774    2.211618    1.366345
 H   -1.756771    3.010884   -0.209920
 H    5.733516   -1.277439    0.878882
 H    4.978229    0.316419    0.968226
 H    0.911071    2.385702   -1.541582
 H    2.835087   -2.316297   -1.762747
 H    6.193950   -0.122875   -1.418219
