55 
6hgi_ligand_aiqm1.xyz
 C    3.186918   -1.761267   -0.145408
 C    4.710476   -1.755867   -0.222858
 C    5.195921   -0.720325   -1.213400
 C    4.462512    0.557923   -1.203075
 C    3.312375    0.736448   -0.525217
 C    2.679533    2.102619   -0.409368
 C    1.193974    2.084290   -0.743508
 C    0.428201    1.004807    0.030215
 C    1.100199   -0.367087   -0.195835
 C    2.596986   -0.387985    0.237874
 C    0.280662   -1.566961    0.314739
 C   -1.199225   -1.510731   -0.091599
 C   -1.844001   -0.161333    0.219583
 C   -1.007829    0.924672   -0.469763
 C   -1.895626    2.176964   -0.434464
 C   -3.344801    1.614271   -0.503858
 C   -3.178944    0.074605   -0.509098
 C   -2.016380    0.074535    1.733738
 C    2.844509   -0.118898    1.741168
 C   -4.385891   -0.702226   -0.042721
 C   -5.730982   -0.283617   -0.609988
 O    6.153987   -0.911130   -1.937372
 O    0.424624   -1.677236    1.728279
 O   -4.343654   -1.661741    0.702372
 O   -6.750112   -1.154476   -0.206701
 H    2.843322   -2.506988    0.573308
 H    2.785796   -2.055849   -1.123067
 H    5.108225   -2.727245   -0.512981
 H    5.136051   -1.511203    0.756632
 H    4.916438    1.377317   -1.750240
 H    2.819003    2.451372    0.616477
 H    3.208419    2.807650   -1.050801
 H    0.763963    3.071299   -0.551730
 H    1.074622    1.888435   -1.815668
 H    0.439675    1.236013    1.099408
 H    1.113377   -0.517324   -1.286776
 H    0.690715   -2.477044   -0.141187
 H   -1.273868   -1.689413   -1.169408
 H   -1.735552   -2.324975    0.402464
 H   -0.939512    0.613170   -1.529255
 H   -1.683992    2.854098   -1.262064
 H   -1.737051    2.734763    0.491486
 H   -3.883589    1.956907   -1.387948
 H   -3.922981    1.919671    0.371011
 H   -3.042866   -0.244769   -1.554543
 H   -2.581580   -0.753316    2.163960
 H   -2.567573    0.995850    1.934011
 H   -1.060741    0.127620    2.248413
 H    3.919367   -0.072084    1.937871
 H    2.412369    0.831782    2.059914
 H    2.418463   -0.908622    2.351855
 H   -5.655259   -0.260163   -1.703604
 H   -5.952244    0.740502   -0.289688
 H   -0.160721   -2.376421    2.025350
 H   -6.325708   -1.791384    0.382764
