54 
6hgj_ligand_ani-2x.xyz
 C    1.162689    0.848562    0.518853
 C    0.981923   -1.628993    0.565723
 C    2.067766   -0.542248   -1.415647
 C   -2.583794   -0.058681   -0.220008
 C   -3.161191    1.247611    0.321680
 C   -4.354598    1.346950    0.924266
 C   -5.306869    0.218033    1.031147
 C   -2.696780   -0.009336   -1.756503
 C    3.585253    1.180360    0.474875
 C    3.216801   -0.296546    0.756353
 C    4.243036   -1.316247    0.328408
 C    5.718989   -1.021945    0.539429
 C    2.233492    1.932759    0.320008
 C    1.837634   -0.461560    0.086881
 C   -0.235072    1.042507   -0.071349
 C   -1.110211   -0.182112    0.297768
 C   -0.440439   -1.534754   -0.011604
 O   -0.411613   -1.722467   -1.420063
 O    2.141658    0.405603   -2.166284
 O   -6.353661    0.312511    1.642821
 C   -4.903974   -1.044777    0.290825
 C   -3.395372   -1.255550    0.329072
 C   -2.332131    2.480662    0.035326
 C   -0.882442    2.314314    0.487231
 O    3.930708   -2.380908   -0.172290
 O    6.503101   -2.144520    0.283217
 H    1.019220    0.744637    1.609387
 H    0.915276   -1.610039    1.662252
 H    1.451734   -2.581333    0.291719
 H    2.193910   -1.574526   -1.800025
 H   -4.687417    2.293764    1.343393
 H   -2.041425    0.762246   -2.170679
 H   -3.723444    0.242285   -2.044289
 H   -2.420306   -0.962802   -2.209880
 H    4.216094    1.588322    1.271680
 H    4.153310    1.247205   -0.458434
 H    3.086666   -0.422935    1.841990
 H    5.869712   -0.669372    1.571570
 H    5.995202   -0.179124   -0.115544
 H    2.159384    2.372973   -0.676394
 H    2.124174    2.739833    1.054214
 H   -0.147407    1.124053   -1.161853
 H   -1.197632   -0.146710    1.396559
 H   -1.038963   -2.334935    0.450019
 H   -0.061656   -2.604963   -1.592699
 H   -5.255398   -0.957521   -0.747803
 H   -5.440502   -1.886177    0.736621
 H   -3.093709   -1.438757    1.369564
 H   -3.132112   -2.153855   -0.243941
 H   -2.786781    3.355549    0.514089
 H   -2.356242    2.669967   -1.047238
 H   -0.296600    3.196416    0.197606
 H   -0.860107    2.265123    1.585869
 H    5.900215   -2.808352   -0.089593
