54 
6hgj_ligand_aiqm1.xyz
 C    1.157389    0.846814    0.465010
 C    0.993335   -1.627372    0.504328
 C    2.017677   -0.532651   -1.500648
 C   -2.576127   -0.058481   -0.231973
 C   -3.138696    1.260244    0.318295
 C   -4.314592    1.350346    0.969048
 C   -5.221012    0.203274    1.151607
 C   -2.756829   -0.009923   -1.767168
 C    3.578523    1.187886    0.371586
 C    3.210344   -0.287294    0.657329
 C    4.271719   -1.289245    0.268396
 C    5.657796   -1.077267    0.844812
 C    2.220756    1.939001    0.279657
 C    1.827638   -0.456766    0.013574
 C   -0.232087    1.046961   -0.133094
 C   -1.097933   -0.171706    0.253636
 C   -0.438860   -1.529471   -0.044332
 O   -0.437096   -1.763417   -1.450590
 O    2.140421    0.436033   -2.215126
 O   -6.206547    0.261882    1.861090
 C   -4.870462   -1.033284    0.353822
 C   -3.361812   -1.258533    0.339161
 C   -2.313854    2.490522    0.027596
 C   -0.859926    2.320226    0.444556
 O    4.065238   -2.250298   -0.447666
 O    6.512051   -2.143196    0.539484
 H    1.003305    0.722890    1.553168
 H    0.968472   -1.614263    1.596892
 H    1.429887   -2.582823    0.200569
 H    2.057367   -1.553349   -1.922302
 H   -4.656688    2.300732    1.364356
 H   -2.197018    0.811898   -2.215261
 H   -3.812177    0.136169   -2.012967
 H   -2.423940   -0.936613   -2.226392
 H    4.232409    1.587389    1.145802
 H    4.104340    1.247786   -0.582440
 H    3.084867   -0.409563    1.740791
 H    5.575348   -0.954729    1.930233
 H    6.054251   -0.134826    0.449277
 H    2.112585    2.412052   -0.695355
 H    2.132491    2.710186    1.044720
 H   -0.165505    1.122648   -1.224069
 H   -1.158087   -0.158174    1.353650
 H   -1.019645   -2.315659    0.447345
 H   -0.168236   -2.672540   -1.600577
 H   -5.238532   -0.891797   -0.668183
 H   -5.405961   -1.883013    0.774682
 H   -3.022272   -1.447572    1.365179
 H   -3.120532   -2.151483   -0.240916
 H   -2.756815    3.354016    0.523351
 H   -2.365598    2.685992   -1.045229
 H   -0.285684    3.200631    0.146263
 H   -0.808322    2.263750    1.538695
 H    6.022741   -2.703822   -0.075372
