34 
6hk6_ligand_xtb.xyz
 C  -71.333141  -18.462519   85.961587
 C  -70.203234  -24.647589   79.632766
 C  -71.469660  -19.823502   85.747734
 C  -73.701004  -19.637503   81.568617
 C  -71.212920  -23.697389   79.890027
 C  -74.244304  -20.720044   80.637403
 C  -73.201158  -21.762222   80.350328
 C  -73.203328  -22.983338   81.054913
 C  -72.238450  -23.924000   80.830510
 C  -71.202540  -22.470467   79.175915
 C  -72.211599  -21.521442   79.431798
 N  -72.054740  -20.335448   84.679459
 N  -73.132262  -20.159023   82.692637
 C  -71.838745  -17.598073   84.999878
 C  -72.536399  -19.502189   83.761797
 C  -72.454019  -18.114600   83.875220
 O  -73.786559  -18.457547   81.323926
 C  -69.227031  -24.394916   78.710503
 C  -69.215650  -23.181224   78.004395
 C  -70.180220  -22.240417   78.231031
 H  -70.848411  -18.089763   86.849796
 H  -70.216808  -25.579963   80.179276
 H  -71.096626  -20.547454   86.460394
 H  -74.566259  -20.226467   79.719611
 H  -75.116850  -21.170620   81.116059
 H  -73.992156  -23.180529   81.768864
 H  -72.250511  -24.859118   81.371999
 H  -72.197262  -20.587461   78.887865
 H  -73.079668  -21.167352   82.779069
 H  -71.754700  -16.528528   85.125669
 H  -72.859549  -17.481590   83.104924
 H  -68.456379  -25.126747   78.517288
 H  -68.436010  -22.998813   77.279299
 H  -70.175448  -21.304844   77.690244
