34 
6hk6_ligand_aiqm1.xyz
 C  -71.353722  -18.312292   85.953319
 C  -70.250772  -24.755108   79.552535
 C  -71.158243  -19.640905   85.610001
 C  -73.792972  -19.690332   81.650584
 C  -71.247683  -23.782111   79.816383
 C  -74.225459  -20.739703   80.628704
 C  -73.199454  -21.793994   80.312945
 C  -73.307605  -23.087665   80.892503
 C  -72.359105  -24.050884   80.653889
 C  -71.134515  -22.497142   79.224296
 C  -72.128340  -21.521018   79.494523
 N  -71.699736  -20.211798   84.527397
 N  -72.978156  -20.153792   82.644314
 C  -72.157593  -17.538398   85.121264
 C  -72.463842  -19.453380   83.744330
 C  -72.733225  -18.101958   83.988825
 O  -74.196498  -18.545870   81.577119
 C  -69.189077  -24.463073   78.735522
 C  -69.075754  -23.180795   78.143519
 C  -70.025802  -22.221767   78.382542
 H  -70.892651  -17.899813   86.839354
 H  -70.340511  -25.734991   80.007471
 H  -70.542563  -20.288974   86.220272
 H  -74.509485  -20.185124   79.736555
 H  -75.131250  -21.203158   81.031957
 H  -74.155602  -23.310622   81.531577
 H  -72.453222  -25.029834   81.110036
 H  -72.028882  -20.535959   79.049260
 H  -72.657999  -21.109111   82.584543
 H  -72.336961  -16.496316   85.351354
 H  -73.360560  -17.534784   83.320794
 H  -68.432202  -25.211049   78.539699
 H  -68.233262  -22.961465   77.501039
 H  -69.940896  -21.239513   77.932374
