15 
6hke_ligand_xtb.xyz
 C   -0.600874    1.124227    0.548386
 O    0.379937    1.752688    0.265073
 O   -1.655293    1.655954    1.179865
 C   -0.824890   -0.346951    0.212841
 O   -1.563928   -1.024838    1.192851
 C    0.524475   -1.035876    0.009222
 C    1.221966   -0.444167   -1.194169
 O    2.539162   -0.367499   -1.016522
 O    0.673913   -0.108471   -2.208863
 H   -1.503127    2.596760    1.362220
 H   -1.362114   -0.350881   -0.754888
 H   -2.295249   -0.461335    1.472883
 H    0.345245   -2.097575   -0.168293
 H    1.156051   -0.928097    0.889582
 H    2.964527    0.035964   -1.790091
