15 
6hke_ligand_aiqm1.xyz
 C   -0.627054    1.141721    0.630385
 O    0.414848    1.739102    0.633097
 O   -1.806834    1.694462    0.977398
 C   -0.797262   -0.319693    0.234313
 O   -1.462415   -1.040811    1.250825
 C    0.555552   -0.964752    0.016776
 C    1.242806   -0.385678   -1.191066
 O    2.562948   -0.630774   -1.171380
 O    0.688183    0.201047   -2.084865
 H   -1.627114    2.616668    1.197360
 H   -1.370777   -0.325192   -0.698660
 H   -2.299137   -0.604123    1.430444
 H    0.411351   -2.034274   -0.149248
 H    1.188244   -0.855052    0.897543
 H    2.926462   -0.232751   -1.972824
