85 
6hm1_ligand_xtb.xyz
 C   -3.525486   -0.545944    0.659778
 C   -4.041501    0.507435   -0.338971
 C   -5.311591    1.148547    0.222202
 C   -6.337718    0.073104    0.623017
 C   -5.667993   -0.972303    1.533882
 C   -6.595028   -2.156378    1.821199
 C   -2.151699    1.428440   -1.582888
 C   -1.130067    2.532082   -1.622829
 N   -3.048179    1.520492   -0.575734
 O   -4.958615    1.921273    1.344653
 O   -7.377945    0.747129    1.285518
 O   -4.518732   -1.514332    0.925601
 O   -7.737766   -1.694325    2.512139
 O   -2.190134    0.518154   -2.389913
 C    0.795868   -1.163756   -0.043625
 C    0.106216   -2.345093   -0.773617
 C   -0.904158   -3.023052    0.175422
 C   -1.663493   -1.965365    1.000433
 C   -0.667326   -1.086570    1.787046
 C   -0.663491   -1.383940    3.291937
 C    0.202458   -1.844492   -3.151047
 C   -0.570500   -1.326980   -4.335463
 N   -0.512918   -1.911362   -2.003501
 O   -1.785791   -3.873143   -0.490770
 O   -2.436659   -1.182029    0.091300
 O    0.662665   -1.288336    1.355436
 O    0.268838   -0.584766    3.959540
 O    1.361584   -2.216395   -3.226111
 C    4.654762    1.312381   -1.325565
 C    3.764844    2.171217   -0.384369
 C    2.692579    1.218450    0.180416
 C    2.659506    0.064279   -0.831463
 C    4.126767   -0.123124   -1.223792
 C    4.326904   -0.949727   -2.504019
 C    5.831046    2.209805    0.343409
 C    6.882100    3.288950    2.214975
 C    8.235747    1.997781    0.621158
 N    4.668357    2.665700    0.620677
 N    6.931018    2.385552    1.093210
 O    1.427428    1.830200    0.308484
 O    2.150925   -1.152362   -0.335110
 O    3.539210   -0.501960   -3.574740
 O    5.961527    1.456481   -0.788656
 H   -3.251916   -0.038638    1.606506
 H   -4.239741    0.000410   -1.288703
 H   -5.765155    1.798772   -0.542625
 H   -6.706420   -0.429334   -0.285008
 H   -5.401285   -0.478226    2.483323
 H   -6.039139   -2.888720    2.417308
 H   -6.873452   -2.622514    0.867573
 H   -0.763895    2.648048   -2.639310
 H   -1.546058    3.470545   -1.268266
 H   -0.286476    2.256498   -0.988526
 H   -2.970094    2.232201    0.134380
 H   -5.788198    2.117093    1.804721
 H   -7.880008    0.092256    1.794339
 H   -8.289847   -2.448301    2.744065
 H    0.311355   -0.224803   -0.364705
 H    0.887297   -3.060634   -1.053905
 H   -0.345226   -3.650527    0.877257
 H   -2.348806   -2.482549    1.682719
 H   -0.930070   -0.027012    1.618743
 H   -1.640668   -1.162920    3.727215
 H   -0.437594   -2.450804    3.433776
 H   -1.216966   -2.120692   -4.705058
 H    0.120479   -1.044265   -5.124684
 H   -1.188141   -0.482355   -4.047720
 H   -1.358950   -1.357321   -1.933454
 H   -2.332977   -3.328854   -1.071998
 H    1.095067   -0.648408    3.462139
 H    4.662417    1.651895   -2.364177
 H    3.270061    3.004879   -0.896397
 H    3.020230    0.827697    1.154092
 H    2.077182    0.388200   -1.706871
 H    4.636333   -0.632195   -0.400918
 H    4.111516   -1.997323   -2.276353
 H    5.376393   -0.859356   -2.807468
 H    7.374614    2.830204    3.074463
 H    5.839196    3.484975    2.446076
 H    7.385245    4.232722    1.982200
 H    8.796577    2.864540    0.254357
 H    8.794513    1.542849    1.441654
 H    8.127688    1.277621   -0.184788
 H    1.529536    2.567293    0.922524
 H    2.732019   -1.044867   -3.586743
