85 
6hm1_ligand_ani-2x.xyz
 C   -3.687878   -0.692393    0.663513
 C   -4.229870    0.302615   -0.375950
 C   -5.518521    0.942688    0.128846
 C   -6.514008   -0.110468    0.629710
 C   -5.816364   -1.099652    1.583394
 C   -6.701782   -2.278670    1.953594
 C   -2.343107    1.192700   -1.665666
 C   -1.254433    2.243943   -1.698946
 N   -3.253881    1.326703   -0.666251
 O   -5.175538    1.801209    1.203368
 O   -7.533718    0.601550    1.301586
 O   -4.667529   -1.660949    0.957786
 O   -7.860710   -1.768358    2.610540
 O   -2.397468    0.268733   -2.472933
 C    0.796320   -0.992100   -0.100464
 C    0.127239   -2.220792   -0.761186
 C   -0.844328   -2.923826    0.208039
 C   -1.658104   -1.917182    1.027214
 C   -0.755332   -0.839257    1.663085
 C   -0.778057   -0.860716    3.184465
 C    0.249593   -1.733352   -3.155544
 C   -0.505762   -1.229684   -4.363561
 N   -0.481615   -1.841803   -2.021868
 O   -1.698563   -3.844194   -0.425386
 O   -2.578236   -1.331182    0.108640
 O    0.614133   -0.998259    1.291340
 O    0.058126    0.139578    3.709511
 O    1.449491   -2.020507   -3.192791
 C    4.807163    1.324063   -1.231909
 C    3.969257    2.173700   -0.232815
 C    2.783907    1.284818    0.198523
 C    2.748654    0.162075   -0.840511
 C    4.210776   -0.086137   -1.178723
 C    4.419805   -0.929130   -2.433705
 C    6.046373    2.085322    0.466106
 C    7.170536    3.095283    2.320757
 C    8.476421    1.968275    0.536955
 N    4.894616    2.516325    0.831126
 N    7.196807    2.206661    1.175435
 O    1.540566    1.965044    0.232056
 O    2.162023   -1.039274   -0.371495
 O    3.743440   -0.386924   -3.547793
 O    6.149239    1.398280   -0.710733
 H   -3.403696   -0.153449    1.587245
 H   -4.411980   -0.250807   -1.299995
 H   -5.986046    1.516949   -0.685849
 H   -6.918818   -0.667275   -0.231128
 H   -5.528271   -0.555799    2.497416
 H   -6.147793   -2.963519    2.607297
 H   -6.971923   -2.812615    1.032278
 H   -1.664280    3.258276   -1.650922
 H   -0.565261    2.110116   -0.854661
 H   -0.694018    2.128366   -2.628315
 H   -3.206137    2.104997   -0.022076
 H   -6.008732    1.942089    1.682607
 H   -7.977565   -0.034052    1.891180
 H   -8.542618   -2.448976    2.628493
 H    0.353526   -0.070914   -0.515386
 H    0.930221   -2.921107   -1.009162
 H   -0.227065   -3.502514    0.902340
 H   -2.219690   -2.465190    1.799980
 H   -1.082184    0.154991    1.315547
 H   -1.796337   -0.653048    3.535167
 H   -0.490545   -1.861050    3.544433
 H   -1.517871   -1.641849   -4.400421
 H    0.040033   -1.494441   -5.270742
 H   -0.602105   -0.141208   -4.303883
 H   -1.408098   -1.427372   -2.014149
 H   -2.444939   -3.322541   -0.759537
 H    0.915104    0.004493    3.281181
 H    4.809285    1.741900   -2.243410
 H    3.582893    3.081765   -0.715331
 H    3.018120    0.840913    1.176256
 H    2.200252    0.523126   -1.729255
 H    4.666910   -0.608650   -0.329171
 H    4.088060   -1.958121   -2.246096
 H    5.490709   -0.955596   -2.672950
 H    7.942110    2.787382    3.033632
 H    6.190515    3.034467    2.797044
 H    7.352514    4.140925    2.033063
 H    8.780973    2.803886   -0.108591
 H    9.231250    1.838531    1.317430
 H    8.433082    1.057925   -0.062376
 H    1.527281    2.517544    1.024510
 H    2.903652   -0.873503   -3.610051
