37 
6hm6_ligand_xtb.xyz
 N   22.740414  -42.441254   39.698728
 C   20.942991  -40.865780   38.221594
 C   22.313193  -40.876053   37.969685
 C   22.861212  -39.834303   37.224868
 C   22.052902  -38.830219   36.729320
 C   23.125199  -41.970134   38.522177
 C   24.519406  -44.012731   39.686150
 C   25.518014  -42.627473   35.824975
 C   24.528315  -41.169624   34.006040
 C   25.802671  -40.830784   32.015802
 C   19.822200  -37.734738   36.405630
 C   20.681457  -38.830132   36.960204
 C   20.140820  -39.860181   37.719110
 C   24.230204  -42.523441   37.832358
 C   24.928793  -43.558912   38.440877
 C   23.410695  -43.426290   40.267924
 O   24.514205  -42.019917   36.603848
 C   25.572486  -41.957547   34.476283
 N   26.675249  -42.183589   33.774286
 C   26.781579  -41.636332   32.576833
 C   24.652835  -40.594307   32.752471
 H   20.520801  -41.661462   38.815543
 H   23.924494  -39.797937   37.047783
 H   22.492731  -38.026591   36.154597
 H   25.052114  -44.810790   40.179431
 H   25.304003  -43.697628   35.679957
 H   26.504439  -42.539005   36.300341
 H   23.653077  -41.012820   34.615612
 H   25.937754  -40.401796   31.035236
 H   20.149379  -36.767395   36.785363
 H   19.896349  -37.706149   35.318889
 H   18.780160  -37.880297   36.678735
 H   19.078558  -39.874009   37.919281
 H   25.781206  -44.013475   37.959226
 H   23.036313  -43.750737   41.229372
 H   27.700401  -41.855143   32.048516
 H   23.862680  -39.972327   32.357155
