37 
6hm6_ligand_ani-2x.xyz
 N   22.739986  -42.461119   39.719546
 C   20.939996  -40.801324   38.260936
 C   22.295014  -40.905514   37.942332
 C   22.858628  -39.923779   37.121605
 C   22.084094  -38.891470   36.616448
 C   23.090721  -42.034351   38.508209
 C   24.566908  -43.999743   39.713651
 C   25.501042  -42.701477   35.824474
 C   24.461287  -41.267781   34.029830
 C   25.764694  -40.736759   32.094105
 C   19.879173  -37.685442   36.345712
 C   20.719232  -38.801917   36.907781
 C   20.165916  -39.772985   37.740733
 C   24.151648  -42.641099   37.794234
 C   24.910300  -43.620374   38.421947
 C   23.471331  -43.400523   40.317258
 O   24.346529  -42.254280   36.510490
 C   25.560170  -41.983122   34.503828
 N   26.710536  -42.090924   33.838371
 C   26.798777  -41.474695   32.659592
 C   24.570443  -40.634596   32.797897
 H   20.496934  -41.536695   38.926545
 H   23.913571  -39.965736   36.874253
 H   22.545611  -38.142865   35.976272
 H   25.137614  -44.762011   40.236405
 H   25.455597  -43.786021   35.657963
 H   26.412687  -42.480808   36.391694
 H   23.555021  -41.222134   34.625096
 H   25.895486  -40.257704   31.128136
 H   20.261627  -36.706815   36.657920
 H   19.880836  -37.701117   35.249713
 H   18.840190  -37.759800   36.679128
 H   19.108513  -39.720567   37.994903
 H   25.753748  -44.087451   37.921011
 H   23.159564  -43.689847   41.318831
 H   27.750559  -41.578478   32.138614
 H   23.735314  -40.069979   32.388739
