37 
6hm6_ligand_aiqm1.xyz
 N   22.735587  -42.471617   39.695394
 C   20.893288  -40.928115   38.124688
 C   22.281910  -40.870191   37.968174
 C   22.830897  -39.748964   37.335204
 C   22.010581  -38.734399   36.852676
 C   23.115752  -41.973811   38.517895
 C   24.586835  -43.986283   39.662610
 C   25.531131  -42.596442   35.844110
 C   24.628580  -41.046812   34.031748
 C   25.832408  -40.969735   31.954691
 C   19.742422  -37.700001   36.458735
 C   20.621102  -38.800848   36.988298
 C   20.078724  -39.913812   37.634227
 C   24.241297  -42.488085   37.828260
 C   24.985752  -43.505304   38.414235
 C   23.457901  -43.450184   40.255593
 O   24.521992  -41.957664   36.609288
 C   25.577270  -41.965927   34.479578
 N   26.607247  -42.387543   33.735551
 C   26.719887  -41.890102   32.498215
 C   24.768110  -40.543093   32.740033
 H   20.458206  -41.773887   38.642144
 H   23.903527  -39.671768   37.215694
 H   22.460684  -37.874267   36.367969
 H   25.146394  -44.770927   40.154494
 H   25.321592  -43.666690   35.743697
 H   26.508891  -42.491393   36.324253
 H   23.813007  -40.742441   34.672499
 H   25.975906  -40.604038   30.947532
 H   19.991586  -36.744531   36.924264
 H   19.872797  -37.579585   35.381040
 H   18.690896  -37.912718   36.654936
 H   19.003924  -39.982885   37.762351
 H   25.853039  -43.919072   37.920318
 H   23.106792  -43.809213   41.213917
 H   27.562795  -42.250234   31.921770
 H   24.050593  -39.828719   32.358116
