24 
6hop_ligand_ani-2x.xyz
 C  -23.186906   17.744322  -11.137527
 C  -23.293003   16.607147  -10.350570
 C  -23.101983   15.352386  -10.920099
 C  -22.879881   17.611918  -12.504880
 C  -22.688302   16.360212  -13.067460
 C  -22.811090   15.209082  -12.276266
 C  -22.490812   18.767639  -14.544026
 C  -22.638919   13.853744  -12.830730
 C  -22.671419   13.525144  -14.126918
 C  -22.416952   12.170027  -14.694500
 O  -22.786977   11.865705  -15.797821
 O  -21.753725   11.274748  -13.926937
 O  -23.373059   18.972694  -10.598805
 O  -22.802283   18.808844  -13.166337
 H  -23.524740   16.717153   -9.295421
 H  -23.190921   14.468198  -10.293647
 H  -22.415978   16.267916  -14.115106
 H  -21.490058   18.350641  -14.710688
 H  -23.227630   18.173268  -15.098186
 H  -22.516077   19.798894  -14.897844
 H  -22.517673   13.074413  -12.074678
 H  -22.979935   14.245919  -14.877933
 H  -21.415831   11.698017  -13.126471
 H  -23.251948   19.613467  -11.317351
