24 
6hop_ligand_aiqm1.xyz
 C  -23.146925   17.735317  -11.133968
 C  -23.236348   16.595861  -10.351424
 C  -23.071273   15.341609  -10.937865
 C  -22.891161   17.615218  -12.510231
 C  -22.728722   16.372509  -13.095725
 C  -22.819822   15.209438  -12.302579
 C  -22.576481   18.790238  -14.549529
 C  -22.654704   13.868182  -12.857397
 C  -22.491973   13.546494  -14.151095
 C  -22.373378   12.162871  -14.679460
 O  -22.645717   11.877814  -15.813351
 O  -21.928330   11.202965  -13.829466
 O  -23.302811   18.961023  -10.581732
 O  -22.828030   18.818889  -13.153848
 H  -23.434389   16.702410   -9.294217
 H  -23.146923   14.456931  -10.318135
 H  -22.529251   16.290428  -14.154085
 H  -21.608608   18.332005  -14.760956
 H  -23.361193   18.243732  -15.075400
 H  -22.570445   19.825775  -14.873143
 H  -22.701475   13.071532  -12.112703
 H  -22.508483   14.299153  -14.924891
 H  -21.663316   11.604592  -12.996869
 H  -23.206341   19.606514  -11.292131
