24 
6hoq_ligand_xtb.xyz
 C  -23.175282   17.776054  -11.156563
 C  -23.240132   16.633548  -10.374970
 C  -23.077808   15.388822  -10.949577
 C  -22.942132   17.654230  -12.542266
 C  -22.781421   16.408633  -13.108048
 C  -22.847436   15.251609  -12.318866
 C  -22.676993   18.830329  -14.602912
 C  -22.681955   13.924018  -12.871706
 C  -22.486866   13.605242  -14.159592
 C  -22.345717   12.245431  -14.711657
 O  -22.387716   12.028859  -15.894789
 O  -22.160528   11.230527  -13.843135
 O  -23.333578   18.994110  -10.595548
 O  -22.897844   18.851831  -13.213311
 H  -23.419067   16.743761   -9.317828
 H  -23.132463   14.509348  -10.325417
 H  -22.602130   16.314904  -14.165486
 H  -21.706999   18.386259  -14.845557
 H  -23.470511   18.286803  -15.124223
 H  -22.685864   19.872424  -14.917913
 H  -22.747485   13.139228  -12.123047
 H  -22.461242   14.361441  -14.928966
 H  -22.109406   11.535493  -12.928476
 H  -23.257924   19.661897  -11.292149
