26 
6hor_ligand_ani-2x.xyz
 C  -23.085370   18.248003  -13.754354
 C  -23.339114   18.680934  -12.320284
 C  -21.935528   12.726241  -17.197056
 O  -21.996780   11.894977  -16.059368
 C  -22.237588   12.494706  -14.865215
 C  -22.290233   11.624896  -13.755296
 O  -22.097872   10.301779  -13.993394
 C  -22.531306   12.145389  -12.492162
 C  -22.720049   13.513380  -12.317949
 C  -22.671383   14.385098  -13.401580
 C  -22.427606   13.858163  -14.678086
 C  -22.878872   15.824582  -13.155864
 C  -22.868823   16.807477  -14.064784
 O  -23.056632   19.064367  -14.654663
 H  -22.497570   18.416554  -11.669755
 H  -23.469724   19.763644  -12.314328
 H  -24.240846   18.207616  -11.915147
 H  -22.885688   13.251015  -17.360588
 H  -21.125453   13.462048  -17.111610
 H  -21.736869   12.065832  -18.041767
 H  -22.159622    9.827402  -13.154219
 H  -22.572230   11.475296  -11.634440
 H  -22.907773   13.903351  -11.321427
 H  -22.386256   14.524535  -15.535106
 H  -23.056064   16.069689  -12.107622
 H  -22.697251   16.617825  -15.121938
