26 
6hor_ligand_xtb.xyz
 C  -23.055538   18.226944  -13.781410
 C  -23.310322   18.643891  -12.350576
 C  -21.936301   12.741236  -17.200633
 O  -22.011676   11.930245  -16.054489
 C  -22.252718   12.522386  -14.856392
 C  -22.314650   11.648905  -13.747613
 O  -22.132125   10.325360  -13.970953
 C  -22.556525   12.166935  -12.486288
 C  -22.737362   13.524490  -12.300786
 C  -22.680208   14.403362  -13.381000
 C  -22.435254   13.876613  -14.657024
 C  -22.875233   15.816991  -13.141735
 C  -22.854335   16.801071  -14.054254
 O  -23.017276   19.041721  -14.681719
 H  -22.469762   18.358936  -11.721971
 H  -23.438466   19.722418  -12.310980
 H  -24.209470   18.161470  -11.974177
 H  -22.878370   13.268328  -17.384187
 H  -21.120337   13.467766  -17.127468
 H  -21.738439   12.060860  -18.027125
 H  -22.198030    9.840574  -13.138736
 H  -22.602939   11.493499  -11.640688
 H  -22.924596   13.904193  -11.307592
 H  -22.389786   14.549182  -15.496261
 H  -23.054193   16.067705  -12.104066
 H  -22.678589   16.589715  -15.099880
