23 
6hot_ligand_aiqm1.xyz
 C  -22.840259   14.251093  -13.249144
 C  -22.619617   13.762894  -14.554257
 C  -22.478935   12.403902  -14.789950
 O  -22.265036   11.834660  -16.000370
 C  -22.557483   11.501800  -13.712743
 O  -22.411552   10.183422  -14.009356
 C  -22.773986   11.977061  -12.429809
 C  -22.915023   13.345552  -12.197002
 C  -22.992752   15.674752  -12.965507
 C  -22.951912   16.696152  -13.843027
 C  -23.127324   18.072931  -13.368086
 O  -23.104830   19.048652  -14.087667
 C  -22.180553   12.713519  -17.109202
 H  -22.560642   14.461661  -15.374897
 H  -22.485224    9.681143  -13.194386
 H  -22.833496   11.276863  -11.604069
 H  -23.083523   13.696218  -11.187646
 H  -23.157957   15.915085  -11.914747
 H  -22.792948   16.554046  -14.905708
 H  -23.287307   18.178365  -12.277259
 H  -23.109157   13.273834  -17.240213
 H  -21.349564   13.413476  -16.995436
 H  -22.010120   12.084521  -17.975518
