23 
6hot_ligand_ani-2x.xyz
 C  -22.839126   14.249587  -13.256883
 C  -22.620485   13.762622  -14.554372
 C  -22.479271   12.401523  -14.791689
 O  -22.265732   11.838187  -16.008498
 C  -22.556872   11.494560  -13.713180
 O  -22.412213   10.175131  -14.000321
 C  -22.773154   11.976392  -12.429956
 C  -22.913122   13.342017  -12.203410
 C  -22.993401   15.680762  -12.963779
 C  -22.953448   16.701159  -13.832236
 C  -23.128865   18.084292  -13.364355
 O  -23.105168   19.054585  -14.087521
 C  -22.179927   12.710127  -17.113797
 H  -22.561274   14.461399  -15.383670
 H  -22.486449    9.672814  -13.178597
 H  -22.832917   11.276325  -11.597569
 H  -23.082008   13.702672  -11.192486
 H  -23.158347   15.908910  -11.908325
 H  -22.793023   16.554157  -14.897123
 H  -23.290265   18.190348  -12.268501
 H  -23.111889   13.273543  -17.251547
 H  -21.344702   13.413861  -17.003729
 H  -22.007543   12.076627  -17.984456
