23 
6hot_ligand_dft.xyz
 C    0.459164   -0.788098    0.000276
 C   -0.246511    0.431224    0.000612
 C   -1.630184    0.458367    0.000371
 O   -2.391858    1.575185    0.000714
 C   -2.348481   -0.760429   -0.000106
 O   -3.698304   -0.671406   -0.000270
 C   -1.657147   -1.962454   -0.000350
 C   -0.264062   -1.978031   -0.000146
 C    1.918980   -0.844256    0.000353
 C    2.790620    0.178164   -0.000294
 C    4.233232   -0.079419    0.000079
 O    5.085669    0.783265   -0.000352
 C   -1.730861    2.820503   -0.000518
 H    0.305758    1.363110    0.001186
 H   -4.069881   -1.561916   -0.000638
 H   -2.211841   -2.898002   -0.000735
 H    0.258868   -2.930052   -0.000364
 H    2.336009   -1.853252    0.001061
 H    2.487890    1.221707   -0.001088
 H    4.513824   -1.157027    0.000709
 H   -1.108192    2.945972    0.894782
 H   -1.107853    2.943998   -0.895848
 H   -2.517139    3.575683   -0.001480
