19 
6hou_ligand_xtb.xyz
 C  -22.765721   15.672756  -13.384230
 C  -22.522871   15.182873  -14.673491
 C  -22.364768   13.830829  -14.903564
 C  -22.452817   12.940563  -13.807452
 C  -22.693570   13.433232  -12.533244
 O  -22.869707   17.949824  -14.051790
 C  -22.850139   14.789101  -12.314670
 C  -22.926875   17.111230  -13.185572
 C  -22.029729   14.098506  -17.234692
 O  -22.127186   13.258612  -16.109284
 O  -22.295059   11.621062  -14.055580
 H  -22.465527   15.904940  -15.472322
 H  -22.757846   12.738295  -11.706455
 H  -23.036960   15.159472  -11.318165
 H  -23.115083   17.396462  -12.130788
 H  -22.960356   14.648190  -17.407024
 H  -21.202191   14.807920  -17.135566
 H  -21.839445   13.436429  -18.077572
 H  -22.375753   11.117705  -13.235438
