24 
6hov_ligand_dft.xyz
 C    2.652721   -0.868082    0.054582
 C    1.892669   -2.024393    0.110311
 C    0.503083   -1.939559    0.089657
 C    2.009137    0.385153   -0.023366
 C    0.630831    0.465049   -0.044155
 C   -0.146936   -0.707287    0.015009
 C    2.338519    2.739515   -0.139160
 C   -1.610399   -0.677039   -0.002818
 C   -2.406792    0.402038   -0.002647
 C   -3.890585    0.353692    0.045548
 O   -4.492293   -0.760230   -0.438001
 O   -4.553622    1.251031    0.499292
 O    4.000159   -0.932684    0.072586
 O    2.876993    1.435512   -0.074539
 H    2.400260   -2.980829    0.170152
 H   -0.083384   -2.853031    0.136699
 H    0.145863    1.432041   -0.108916
 H    1.739384    2.874696   -1.047859
 H    1.722085    2.956080    0.741713
 H    3.190678    3.418861   -0.162222
 H   -2.070411   -1.666488    0.016717
 H   -2.010233    1.410107    0.062004
 H   -3.851918   -1.290922   -0.929120
 H    4.334288   -0.024065    0.028365
