24 
6hov_ligand_xtb.xyz
 C   13.479037    4.610441    0.008978
 C   12.787127    4.112169   -1.083456
 C   11.496110    4.530113   -1.337366
 C   12.851995    5.547019    0.856846
 C   11.563475    5.958878    0.596802
 C   10.861715    5.455284   -0.507605
 C   13.089609    6.900619    2.809014
 C    9.507852    5.862370   -0.818989
 C    8.739788    6.710595   -0.119735
 C    7.352261    7.096392   -0.435350
 O    6.868052    6.764073   -1.649402
 O    6.660561    7.691660    0.349295
 O   14.742017    4.202574    0.258118
 O   13.633226    5.969870    1.904386
 H   13.280395    3.397107   -1.721476
 H   10.971693    4.130531   -2.192553
 H   11.084676    6.674722    1.242872
 H   12.833849    7.839669    2.309282
 H   12.204432    6.498587    3.310711
 H   13.869925    7.084559    3.545594
 H    9.115627    5.388620   -1.714736
 H    9.089001    7.161302    0.796420
 H    7.527966    6.322950   -2.199064
 H   15.055812    4.654095    1.054713
