44 
6hoy_ligand_ani-2x.xyz
 O   -6.534323    3.817203   -2.019241
 O   -4.844908    1.905038   -2.434669
 O    0.103047   -3.654286    0.424291
 N   -5.668836    3.427073   -1.007799
 N    4.885011    0.355140   -0.905292
 C    1.401688   -1.693242    0.276479
 C    1.481641   -0.303146    0.368877
 C    2.623421    0.379039   -0.018019
 C    3.743774   -0.313841   -0.522685
 C    3.651020   -1.718203   -0.623632
 C    2.503216   -2.384391   -0.234647
 C    0.196009   -2.471715    0.689594
 C   -0.936199   -1.747721    1.439092
 C   -1.787775   -0.960085    0.465821
 C   -2.561475    0.089749    0.784946
 C   -3.352160    0.727248   -0.275261
 C   -4.158069    1.784689   -0.131064
 C   -4.902814    2.329021   -1.282411
 C   -1.795160   -2.751087    2.212100
 C   -2.679015    0.648563    2.177361
 C    6.014658   -0.384066   -1.420233
 C    4.946302    1.794549   -0.793492
 H   -6.247643    3.232637   -2.752605
 H   -6.115441    3.523094   -0.106629
 H    0.630671    0.266928    0.736694
 H    2.642078    1.458175    0.078179
 H    4.482758   -2.296046   -1.010821
 H    2.446652   -3.466102   -0.322853
 H   -0.464581   -1.049649    2.147627
 H   -1.831150   -1.334707   -0.555167
 H   -3.275049    0.289225   -1.271910
 H   -4.291907    2.289174    0.823880
 H   -2.624058   -2.238435    2.709835
 H   -1.204563   -3.281558    2.964687
 H   -2.211193   -3.488647    1.520469
 H   -3.717991    0.618158    2.522089
 H   -2.076441    0.090596    2.898038
 H   -2.352782    1.693429    2.212976
 H    5.753272   -0.940601   -2.330523
 H    6.396327   -1.103940   -0.683588
 H    6.823127    0.309825   -1.666998
 H    4.817664    2.125668    0.246012
 H    4.170333    2.280964   -1.400151
 H    5.920762    2.146584   -1.143459
