52 
6hp0_ligand_ani-2x.xyz
 N    0.142208    0.118702    1.154784
 N    3.456221   -2.013970    1.955298
 C   -3.985685    0.461912    0.461482
 C   -3.437748   -0.074674    1.781000
 C   -0.757497   -0.059412   -1.164558
 C   -0.540805   -0.756916   -2.481506
 C    0.593264   -1.388189   -2.804136
 C    1.669229   -0.559854   -0.686152
 C    0.483260    1.915441    2.741657
 C    4.235183   -0.913978    1.798878
 C    0.786102   -2.046826   -4.120391
 C   -4.283628    2.577012   -1.783491
 C   -3.389993    1.341605   -1.865079
 C   -2.878539    0.856766   -0.506576
 O   -2.075670   -0.303435   -0.708862
 C    1.762027   -1.537254   -1.859550
 C    0.238099   -0.577576   -0.121753
 C    0.311565    1.469576    1.303312
 O    0.297434    2.256789    0.367641
 N    2.635929   -0.876826    0.361258
 C    3.710490   -0.162553    0.775153
 C    5.401215   -0.657928    2.706483
 O    6.078834   -1.835450    3.066917
 N    2.487876   -1.974757    1.089327
 O   -0.303495   -2.004108   -4.918661
 O    1.813438   -2.580769   -4.472934
 H    0.460841   -0.458525    1.921379
 H   -4.613140   -0.298620   -0.022695
 H   -4.626999    1.332778    0.649365
 H   -2.785134    0.660592    2.269049
 H   -2.848073   -0.979606    1.608898
 H   -4.250965   -0.313578    2.473322
 H   -0.598227    1.020076   -1.280696
 H   -1.376866   -0.722125   -3.176541
 H    1.907764    0.455300   -1.015297
 H    0.514527    3.004530    2.767390
 H   -0.353412    1.562211    3.355449
 H    1.408129    1.519170    3.175489
 H   -5.226294    2.364719   -1.268624
 H   -4.533337    2.944200   -2.783725
 H   -3.782421    3.390566   -1.245398
 H   -2.522085    1.562472   -2.500519
 H   -3.921171    0.509011   -2.343917
 H   -2.261577    1.646084   -0.046528
 H    1.789497   -2.563291   -1.469425
 H    2.693253   -1.401199   -2.415932
 H   -0.043442   -1.615219    0.086835
 H    3.989023    0.784132    0.329265
 H    5.043752   -0.108856    3.594681
 H    6.123996   -0.009544    2.200095
 H    5.402504   -2.496273    3.275835
 H   -0.039655   -2.462334   -5.732998
