52 
6hp0_ligand_aiqm1.xyz
 N    0.132665    0.115174    1.272142
 N    3.512585   -2.079288    2.059628
 C   -4.107833    0.468857    0.338531
 C   -3.744391    0.011373    1.745131
 C   -0.758363   -0.095652   -1.032776
 C   -0.533346   -0.769356   -2.367250
 C    0.581430   -1.455698   -2.664074
 C    1.636220   -0.648930   -0.553333
 C    0.287307    1.980175    2.786557
 C    4.265776   -0.961684    1.867188
 C    0.762972   -2.088201   -3.993868
 C   -4.120905    2.597921   -1.922121
 C   -3.270436    1.332549   -1.901418
 C   -2.903453    0.853333   -0.500454
 O   -2.082006   -0.321922   -0.585945
 C    1.715519   -1.661778   -1.688300
 C    0.217932   -0.633547    0.029684
 C    0.520195    1.406543    1.406490
 O    1.008831    2.047726    0.487105
 N    2.616813   -0.953030    0.476036
 C    3.696559   -0.236037    0.844161
 C    5.508926   -0.706305    2.647043
 O    6.684703   -0.994617    1.886307
 N    2.509567   -2.065223    1.216282
 O   -0.267717   -1.846145   -4.835272
 O    1.717695   -2.750025   -4.316890
 H   -0.292392   -0.329916    2.066101
 H   -4.646952   -0.321787   -0.188150
 H   -4.771597    1.334435    0.389741
 H   -3.166942    0.781283    2.267027
 H   -3.145401   -0.898585    1.718554
 H   -4.641469   -0.187266    2.330618
 H   -0.580625    0.975658   -1.161371
 H   -1.335433   -0.678643   -3.091287
 H    1.885111    0.345699   -0.919200
 H    0.877333    2.883804    2.902326
 H   -0.767204    2.231076    2.904969
 H    0.548823    1.258910    3.560385
 H   -5.109996    2.434196   -1.491845
 H   -4.263353    2.947468   -2.944349
 H   -3.640744    3.401111   -1.359570
 H   -2.346537    1.510877   -2.459925
 H   -3.787457    0.513943   -2.409304
 H   -2.326142    1.641004    0.011513
 H    1.665239   -2.675605   -1.280696
 H    2.676646   -1.578064   -2.196901
 H   -0.065995   -1.657139    0.261492
 H    3.956795    0.695922    0.373223
 H    5.482912   -1.291888    3.567332
 H    5.589075    0.349397    2.908426
 H    6.667973   -1.929056    1.670678
 H   -0.049113   -2.303049   -5.656068
