34 
6hsz_ligand_aiqm1.xyz
 O   44.901309   37.670989   86.732139
 C   44.375000   37.007898   87.608002
 C   44.072503   37.575251   88.957687
 C   44.792608   38.702941   89.353787
 C   44.569759   39.275509   90.599316
 C   43.612013   38.731870   91.453934
 C   42.874418   37.619957   91.054807
 C   43.105538   37.039988   89.811714
 N   44.012747   35.693285   87.436091
 C   44.384095   34.932199   86.293234
 C   43.904920   35.263953   85.013158
 C   42.966927   36.414932   84.777140
 C   45.223911   33.836669   86.472160
 C   45.617988   33.055828   85.389063
 C   45.186158   33.393410   84.106150
 C   44.341358   34.483486   83.937466
 C   46.507440   31.900799   85.658457
 O   47.086238   31.712652   86.720007
 N   46.705068   31.032309   84.611518
 O   47.392126   29.874061   84.973520
 H   45.517842   39.113552   88.665417
 H   45.135435   40.146917   90.902260
 H   43.434675   39.177591   92.423801
 H   42.117853   37.206274   91.708308
 H   42.503879   36.194226   89.498490
 H   43.862589   35.174646   88.283641
 H   42.175399   36.438484   85.527697
 H   43.499469   37.362355   84.831941
 H   42.510716   36.325790   83.791404
 H   45.591176   33.576026   87.460061
 H   45.528530   32.831253   83.247052
 H   44.000715   34.740931   82.941815
 H   45.905304   30.794561   84.044855
 H   47.620195   30.072507   85.902409
