45 
6hth_ligand_ani-2x.xyz
 C   43.488287   37.127450   89.223909
 C   44.377868   37.525957   88.223216
 C   44.565183   36.780206   86.940580
 C   44.199113   34.664162   85.778754
 C   44.920170   33.479346   85.865178
 O   45.137610   37.266659   85.986223
 N   44.051548   35.495915   86.918810
 C   45.096753   32.669078   84.746034
 C   45.884743   31.422013   84.924027
 N   45.752618   30.477675   83.939261
 O   46.339305   29.249295   84.227377
 O   46.641881   31.219469   85.867245
 C   44.564732   33.058483   83.516514
 C   43.828290   34.230088   83.426345
 C   43.620688   35.024533   84.550969
 O   42.872186   36.160696   84.419900
 C   41.609615   36.114997   85.070104
 C   45.126590   38.690181   88.407180
 C   45.014351   39.419700   89.579074
 C   44.130381   39.023712   90.589048
 C   43.362713   37.870769   90.386901
 C   44.004641   39.810516   91.841517
 C   42.747607   40.085203   92.388717
 C   42.626408   40.828435   93.557267
 C   43.764127   41.296953   94.208851
 C   45.021921   41.023233   93.678270
 C   45.139198   40.293429   92.500842
 H   42.858221   36.250935   89.094638
 H   45.378509   33.174752   86.802004
 H   43.950352   35.015557   87.800158
 H   44.836022   30.326473   83.535819
 H   46.820237   29.445496   85.059141
 H   44.743193   32.461567   82.626144
 H   43.391454   34.546729   82.483888
 H   40.947342   35.384724   84.586310
 H   41.719277   35.865983   86.130597
 H   41.180247   37.114729   84.971272
 H   45.800818   39.004183   87.616403
 H   45.602022   40.325570   89.708373
 H   42.678227   37.537675   91.163711
 H   41.856188   39.727216   91.877692
 H   41.639892   41.035147   93.963969
 H   43.670980   41.872701   95.125796
 H   45.916331   41.385824   94.178168
 H   46.124161   40.075082   92.093403
