45 
6hth_ligand_aiqm1.xyz
 C   43.276084   37.171259   89.120872
 C   44.170620   37.551310   88.116775
 C   44.269916   36.853263   86.801113
 C   44.009016   34.691994   85.694441
 C   44.795819   33.558644   85.893647
 O   44.720464   37.391849   85.807894
 N   43.780245   35.561962   86.791739
 C   45.100486   32.687874   84.850628
 C   45.936073   31.506909   85.160738
 N   46.076013   30.580131   84.154221
 O   46.715587   29.410560   84.564492
 O   46.524069   31.341464   86.221610
 C   44.642726   32.979041   83.562181
 C   43.843073   34.090426   83.356257
 C   43.488812   34.941559   84.410005
 O   42.705358   35.988877   84.065859
 C   41.666643   36.402565   84.956959
 C   45.004365   38.651104   88.330912
 C   44.966639   39.339544   89.534937
 C   44.078991   38.959981   90.551285
 C   43.228054   37.871980   90.320378
 C   44.035366   39.695045   91.836845
 C   42.815991   39.954903   92.472231
 C   42.776743   40.649035   93.678281
 C   43.956982   41.088023   94.272280
 C   45.176378   40.832518   93.650581
 C   45.214812   40.145006   92.440816
 H   42.588103   36.347770   88.962281
 H   45.200042   33.341914   86.878470
 H   43.705010   35.124344   87.693577
 H   45.255566   30.349708   83.614788
 H   46.968055   29.644741   85.478684
 H   44.924462   32.354999   82.724632
 H   43.475094   34.339063   82.369177
 H   41.254819   35.551396   85.501898
 H   42.032193   37.151924   85.656628
 H   40.895389   36.834830   84.324879
 H   45.671253   38.953590   87.535275
 H   45.613400   40.195144   89.685753
 H   42.533613   37.565053   91.092791
 H   41.892873   39.628302   92.007866
 H   41.823893   40.847480   94.151393
 H   43.926631   41.625026   95.210592
 H   46.099122   41.167268   94.105957
 H   46.167158   39.939119   91.966982
