31 
6htt_ligand_ani-2x.xyz
 C   45.428357   33.927901   85.443269
 C   45.303128   34.965269   86.360542
 C   44.846660   36.215913   85.947076
 C   44.565626   36.430104   84.596354
 C   44.707078   35.397097   83.675501
 C   45.900582   32.620178   85.974162
 O   45.947105   30.302858   85.781022
 C   44.237338   39.292180   89.188219
 C   44.269098   37.900276   89.298505
 C   44.096520   37.300364   90.550170
 C   43.893674   38.080705   91.681151
 C   43.859808   39.467898   91.577168
 C   44.032224   40.059591   90.329982
 N   44.477719   37.049580   88.192629
 C   44.661723   37.384017   86.875694
 C   45.136002   34.142240   84.095259
 N   45.681191   31.528159   85.177666
 O   44.656877   38.526725   86.447528
 O   46.478721   32.491746   87.048381
 H   45.616810   34.762560   87.382432
 H   44.242317   37.420470   84.290036
 H   44.482863   35.568980   82.626232
 H   46.355853   30.579767   86.628194
 H   44.370659   39.751486   88.217586
 H   44.126332   36.216348   90.638228
 H   43.761498   37.599627   92.646993
 H   43.700984   40.083162   92.458367
 H   44.007898   41.142777   90.235093
 H   44.393506   36.064954   88.391802
 H   45.275476   33.342861   83.372274
 H   44.807475   31.472204   84.668585
