31 
6htt_ligand_aiqm1.xyz
 C   45.394459   33.909632   85.466025
 C   45.221428   34.943990   86.384124
 C   44.787252   36.196529   85.960537
 C   44.555752   36.411658   84.599079
 C   44.741464   35.387805   83.677798
 C   45.851936   32.597295   85.993411
 O   46.050023   30.307241   85.718536
 C   44.272099   39.314150   89.189608
 C   44.264269   37.919955   89.297372
 C   44.074088   37.322396   90.546671
 C   43.890335   38.102942   91.681150
 C   43.894346   39.491165   91.583284
 C   44.085124   40.081319   90.338181
 N   44.452715   37.054194   88.197648
 C   44.576322   37.368726   86.877661
 C   45.156800   34.129930   84.107746
 N   45.783132   31.539227   85.124475
 O   44.503953   38.501722   86.437558
 O   46.308012   32.435879   87.117198
 H   45.475469   34.728920   87.414024
 H   44.245468   37.398932   84.286399
 H   44.573806   35.570390   82.624495
 H   46.308133   30.581575   86.619647
 H   44.417667   39.785704   88.230055
 H   44.072936   36.240386   90.630730
 H   43.745573   37.619528   92.637657
 H   43.751913   40.102755   92.462942
 H   44.090169   41.160526   90.253631
 H   44.467415   36.076510   88.421180
 H   45.335053   33.338775   83.390291
 H   44.973988   31.468243   84.526989
