62 
6hvh_ligand_aiqm1.xyz
 C   84.991854   46.966372  267.752220
 C   84.038370   47.038749  268.936457
 O   83.553081   45.750748  269.288435
 C   84.610048   44.899143  269.689852
 C   85.611717   44.692313  268.559303
 C   86.152441   46.031861  268.088871
 N   87.043854   45.838711  266.943609
 C   87.968973   46.751998  266.591877
 O   88.104500   47.810658  267.206203
 C   88.826933   46.392723  265.414858
 C   88.359837   45.544985  264.409756
 C   89.160413   45.264847  263.313115
 N   90.380102   45.787784  263.157765
 C   90.831673   46.607136  264.102163
 C   90.111739   46.949358  265.264849
 N   90.597640   47.840491  266.200411
 C   91.918374   48.110999  266.544305
 C   92.152822   49.317657  267.265568
 C   92.978635   47.270145  266.281191
 C   94.280576   47.625751  266.702581
 N   95.296846   46.756050  266.442257
 C   96.487406   47.106558  266.869417
 C   96.718912   48.323275  267.558826
 N   95.760264   49.179368  267.816701
 C   94.514533   48.843392  267.393047
 C   93.403475   49.706847  267.675977
 C   93.556131   50.988867  268.417962
 C   92.704181   51.258066  269.484875
 C   92.853549   52.477578  270.154525
 N   92.162617   52.974570  271.233887
 C   91.089966   52.292115  271.919572
 C   92.666319   54.220837  271.533737
 C   93.676833   54.544956  270.666022
 C   93.817802   53.438675  269.767876
 C   94.657805   53.155456  268.677654
 C   94.519778   51.947146  268.021826
 H   85.369266   47.957945  267.502919
 H   84.453790   46.571919  266.883196
 H   83.161957   47.637473  268.698900
 H   84.545241   47.489851  269.799383
 H   84.153559   43.955153  269.979512
 H   85.118842   45.324913  270.565045
 H   85.107771   44.198412  267.722004
 H   86.425995   44.047635  268.899996
 H   86.744062   46.493185  268.884024
 H   87.027525   44.956642  266.465176
 H   87.359332   45.130036  264.452358
 H   88.810422   44.611410  262.524687
 H   91.804056   47.051617  263.927612
 H   89.883352   48.256995  266.781282
 H   91.296625   49.945811  267.491107
 H   92.860152   46.324684  265.773964
 H   97.308908   46.425250  266.675015
 H   97.719225   48.575405  267.891454
 H   91.956299   50.537049  269.796955
 H   90.252594   52.110800  271.244150
 H   91.432692   51.334137  272.312322
 H   90.750658   52.913497  272.746665
 H   92.251531   54.779350  272.359145
 H   94.242750   55.460364  270.678288
 H   95.404431   53.871134  268.355379
 H   95.170664   51.713545  267.189509
