62 
6hvh_ligand_xtb.xyz
 C   84.553804   46.294663  267.422584
 C   83.613280   46.432944  268.622235
 O   83.772820   45.374578  269.536292
 C   85.080314   45.321636  270.054592
 C   86.121078   45.108282  268.952590
 C   85.999754   46.234920  267.922888
 N   86.922428   46.046016  266.825688
 C   87.911429   46.916389  266.535667
 O   88.104786   47.920838  267.213770
 C   88.750815   46.564485  265.360989
 C   88.250173   45.810699  264.300512
 C   89.066189   45.524822  263.222431
 N   90.315157   45.960413  263.133929
 C   90.804223   46.681493  264.113213
 C   90.086562   47.024554  265.275138
 N   90.595043   47.826253  266.254010
 C   91.908868   48.092826  266.584169
 C   92.144590   49.274983  267.323916
 C   92.963878   47.259100  266.280809
 C   94.261348   47.610887  266.682192
 N   95.283861   46.778941  266.380588
 C   96.477752   47.122273  266.783231
 C   96.708142   48.301329  267.515082
 N   95.739706   49.125428  267.820966
 C   94.499208   48.815401  267.407813
 C   93.397177   49.659159  267.731533
 C   93.589018   50.900149  268.491109
 C   92.698267   51.224040  269.504562
 C   92.898567   52.407409  270.199216
 N   92.190124   52.954264  271.233228
 C   91.026150   52.378744  271.841305
 C   92.779640   54.137438  271.577054
 C   93.865054   54.377842  270.789153
 C   93.970568   53.282695  269.891058
 C   94.850610   52.941772  268.863120
 C   94.654936   51.764637  268.183115
 H   84.417872   47.138505  266.745667
 H   84.316234   45.371938  266.888040
 H   82.569772   46.396867  268.303624
 H   83.800948   47.394824  269.124822
 H   85.087279   44.489662  270.761361
 H   85.307377   46.253359  270.596306
 H   85.933156   44.148856  268.465031
 H   87.121549   45.092130  269.385655
 H   86.272705   47.190689  268.384524
 H   86.829972   45.198451  266.289273
 H   87.221385   45.481621  264.289797
 H   88.709836   44.942671  262.384516
 H   91.806467   47.055831  263.963154
 H   89.878552   48.237655  266.853160
 H   91.296277   49.906160  267.548791
 H   92.831173   46.320837  265.768072
 H   97.286686   46.448708  266.531263
 H   97.698336   48.569869  267.858535
 H   91.890343   50.554924  269.761821
 H   90.225065   52.260736  271.106531
 H   91.257475   51.396550  272.262232
 H   90.676247   53.029882  272.640545
 H   92.373602   54.732286  272.374044
 H   94.514145   55.229169  270.838391
 H   95.670901   53.596610  268.609460
 H   95.323028   51.489303  267.383240
