49 
6hzv_ligand_aiqm1.xyz
 C    9.980165   25.992817    0.041925
 C    8.900184   26.889499    2.006265
 C    9.570598   27.119124   -0.713807
 C    8.502625   27.979670    1.283154
 C    8.844535   28.095988   -0.104321
 C   10.169407   24.712659    1.846818
 C   10.803717   24.159805    0.751112
 C   10.075010   24.177719    3.194500
 C    9.965865   23.127061    5.649594
 C    9.347226   24.338441    5.301881
 C    8.948298   23.962278    7.485634
 C   11.852081   22.215744    7.943513
 C    6.133717   27.480211    5.593038
 O    7.074196   28.476179    5.226004
 C    8.907526   27.272219    6.254937
 O    8.551465   24.106106    8.621413
 N    9.687855   22.893985    6.984962
 C   10.357591   21.967901    7.867449
 O   12.039793   23.582394    8.277011
 C   10.643421   22.476388    4.646748
 N   10.694303   23.015111    3.406976
 N    8.714895   24.820664    6.412029
 C    7.986710   26.086226    6.525218
 C    8.101104   28.561609    6.200954
 C    6.776841   26.100646    5.596697
 N    9.373142   24.892177    4.107656
 N    9.631149   25.909062    1.385525
 N   10.687648   24.941724   -0.351669
 C    7.738522   29.024236    1.897745
 N    7.119333   29.893270    2.352384
 H    8.672064   26.750375    3.047099
 H    9.851048   27.163862   -1.753603
 H    8.513615   28.969324   -0.642965
 H   11.336535   23.224113    0.731018
 H   12.326385   21.983007    6.983311
 H   12.276372   21.553564    8.703536
 H    5.329934   27.538133    4.861176
 H    5.722172   27.711457    6.584010
 H    9.412280   27.126231    5.296885
 H    9.670212   27.333588    7.034660
 H    9.903249   22.115800    8.845314
 H   10.175919   20.942275    7.536112
 H   12.972751   23.746509    8.415018
 H   11.150183   21.527204    4.779839
 H    7.648254   26.121824    7.561037
 H    7.658320   28.775812    7.182181
 H    8.724668   29.404992    5.910122
 H    7.099134   25.853549    4.582653
 H    6.054184   25.345072    5.915353
