49 
6hzv_ligand_xtb.xyz
 C   10.084953   26.036618    0.033881
 C    8.802637   26.804197    1.911422
 C    9.599915   27.089345   -0.753250
 C    8.309955   27.828844    1.141989
 C    8.717271   27.977603   -0.211097
 C   10.283748   24.809465    1.868665
 C   11.041927   24.308604    0.815358
 C   10.155452   24.281302    3.200613
 C   10.006523   23.203768    5.635517
 C    9.383853   24.431593    5.296769
 C    8.947864   23.993038    7.451851
 C   11.766748   22.057039    7.952780
 C    6.176826   27.583629    5.704574
 O    7.094041   28.610314    5.420655
 C    8.965005   27.322061    6.277547
 O    8.502055   24.090345    8.567337
 N    9.711965   22.954954    6.952551
 C   10.249790   21.916956    7.790314
 O   12.036179   23.344383    8.454441
 C   10.702566   22.569785    4.626595
 N   10.769802   23.122119    3.424288
 N    8.745857   24.889116    6.406959
 C    8.032574   26.140707    6.557467
 C    8.163363   28.623647    6.332847
 C    6.823689   26.198195    5.620337
 N    9.440995   24.979249    4.101943
 N    9.666498   25.926594    1.365649
 N   10.917028   25.057636   -0.283319
 C    7.369030   28.739116    1.679270
 N    6.588634   29.483912    2.064107
 H    8.534910   26.655756    2.945422
 H    9.937312   27.160201   -1.773535
 H    8.317401   28.795123   -0.790067
 H   11.664117   23.436758    0.834384
 H   12.262754   21.913731    6.981602
 H   12.115444   21.277283    8.642985
 H    5.381627   27.684390    4.963772
 H    5.751980   27.727073    6.710989
 H    9.395284   27.205780    5.281568
 H    9.772806   27.347237    7.010023
 H    9.767238   22.039931    8.763329
 H   10.012292   20.933514    7.374061
 H   12.971917   23.419306    8.665502
 H   11.209835   21.622004    4.745821
 H    7.699047   26.164020    7.602303
 H    7.785401   28.779525    7.355960
 H    8.786663   29.474376    6.051109
 H    7.157323   26.015006    4.598425
 H    6.096104   25.432450    5.892385
