49 
6hzv_ligand_ani-2x.xyz
 C    9.967014   26.015147    0.022205
 C    8.872174   26.917045    1.974413
 C    9.529034   27.131928   -0.741054
 C    8.447070   27.993008    1.249435
 C    8.785301   28.098818   -0.138857
 C   10.179702   24.762312    1.843606
 C   10.818816   24.210670    0.756241
 C   10.095629   24.237912    3.205211
 C   10.017245   23.183196    5.652957
 C    9.390594   24.392704    5.327094
 C    9.010109   23.993765    7.511752
 C   11.825376   22.104599    8.042920
 C    6.132651   27.445518    5.571791
 O    7.035315   28.468026    5.206644
 C    8.917474   27.316284    6.223655
 O    8.617492   24.110597    8.652397
 N    9.764539   22.943585    6.987060
 C   10.335067   21.907627    7.816175
 O   11.993823   23.349120    8.682186
 C   10.694390   22.529352    4.634559
 N   10.725942   23.070255    3.414073
 N    8.782292   24.874775    6.457031
 C    8.028361   26.114935    6.555281
 C    8.092698   28.594762    6.133766
 C    6.816007   26.084154    5.621207
 N    9.412552   24.938612    4.127889
 N    9.620568   25.946617    1.362402
 N   10.693045   24.967364   -0.353289
 C    7.658955   29.028571    1.864058
 N    7.022403   29.886411    2.316078
 H    8.655964   26.772362    3.019926
 H    9.805044   27.175914   -1.787185
 H    8.440785   28.960399   -0.704992
 H   11.369529   23.277055    0.755209
 H   12.349823   22.066291    7.075052
 H   12.197030   21.272687    8.661520
 H    5.343665   27.456009    4.813429
 H    5.671962   27.676836    6.548620
 H    9.398072   27.136389    5.253208
 H    9.703555   27.413096    6.979247
 H    9.806809   21.965858    8.768550
 H   10.138875   20.929272    7.363154
 H   12.932934   23.564930    8.706348
 H   11.205651   21.575708    4.766906
 H    7.696116   26.172310    7.596939
 H    7.695084   28.862997    7.128699
 H    8.706519   29.427899    5.777668
 H    7.160728   25.824355    4.611902
 H    6.116413   25.309565    5.951017
