40 
6i0x_ligand_ani-2x.xyz
 O    0.630053   -3.303174    0.011183
 C   -0.260152   -2.570082    0.416795
 N   -1.343618   -3.014705    1.094073
 C   -0.208793   -1.057491    0.164774
 C   -1.081421   -0.689817   -1.051987
 C   -1.245457    0.816961   -1.267997
 C   -2.043932    1.569575   -0.191525
 N   -3.459144    1.247875   -0.091424
 C   -3.979698    0.129269    0.523805
 C   -5.406094   -0.157839    0.124741
 N   -3.345942   -0.633723    1.338250
 N    1.174355   -0.687806   -0.028097
 C    1.687945    0.423481    0.569569
 O    0.984511    1.211063    1.196167
 C    3.162461    0.638560    0.423729
 C    3.777762    1.490948    1.340601
 C    3.921624    0.048703   -0.588929
 C    5.288879    0.292052   -0.665112
 C    5.903373    1.125376    0.266907
 C    5.145378    1.727377    1.268770
 H   -1.429277   -4.008636    1.248315
 H   -2.114757   -2.398366    1.339925
 H   -0.562600   -0.514874    1.048378
 H   -0.610330   -1.126337   -1.941858
 H   -2.064910   -1.161485   -0.946194
 H   -1.726435    0.974043   -2.241598
 H   -0.255430    1.283855   -1.334493
 H   -1.570692    1.440738    0.786928
 H   -1.983930    2.641590   -0.409023
 H   -4.044759    1.649193   -0.806940
 H   -5.789363   -1.019305    0.673518
 H   -6.040355    0.708866    0.336671
 H   -5.467720   -0.371269   -0.948070
 H   -2.502218   -0.135750    1.634694
 H    1.780241   -1.464348   -0.268735
 H    3.161157    1.958998    2.103127
 H    3.449719   -0.582339   -1.340106
 H    5.875543   -0.176149   -1.451861
 H    6.972760    1.310480    0.208748
 H    5.621562    2.384692    1.991983
