44 
6i5i_ligand_aiqm1.xyz
 C   20.771718   42.538694   10.615831
 C   20.830314   41.768145    9.434449
 C   20.158419   42.171056    8.288764
 N   22.766645   40.949487   13.283304
 C   19.452412   43.356560    8.413625
 C   19.440029   44.069481    9.612231
 N   17.396513   48.158320   11.246404
 C   18.608576   45.233728    9.370077
 C   18.209794   45.111754    8.080293
 C   18.295336   46.291648   10.318164
 C   17.421162   47.388354   10.158954
 N   18.255036   47.579896   12.100580
 C   18.416459   48.140713   13.429170
 C   17.624542   47.394866   14.479728
 C   16.436402   46.738717   14.149526
 N   20.087245   43.683882   10.718513
 C   22.442110   42.218403   15.302988
 N   22.180966   41.992438   13.896923
 C   22.339279   41.006423   12.023301
 C   21.470622   42.099357   11.819669
 C   21.401918   42.708592   13.063778
 O   18.704241   43.983892    7.471290
 C   18.805355   46.453954   11.595188
 C   18.070647   47.376562   15.801373
 C   17.334876   46.722958   16.785612
 C   16.148380   46.073396   16.454504
 C   15.703581   46.081691   15.134754
 H   21.400783   40.850956    9.424339
 H   20.180847   41.602734    7.368777
 H   17.588298   45.721267    7.446515
 H   16.805813   47.649398    9.313530
 H   18.079736   49.174455   13.358993
 H   19.477305   48.140227   13.684149
 H   16.100236   46.745034   13.121319
 H   22.142337   41.343674   15.874677
 H   23.503709   42.398814   15.454729
 H   21.870093   43.085030   15.629142
 H   22.677839   40.265095   11.318446
 H   20.851951   43.579699   13.379187
 H   19.497282   45.845981   12.154822
 H   18.994815   47.878087   16.066626
 H   17.688683   46.721359   17.808597
 H   15.576419   45.564170   17.218527
 H   14.783774   45.575754   14.871230
