44 
6i5i_ligand_ani-2x.xyz
 C   20.980093   42.544344   10.581881
 C   21.073470   41.811951    9.380219
 C   20.349364   42.188666    8.261918
 N   23.236719   41.133325   13.152363
 C   19.558529   43.313649    8.432206
 C   19.517291   43.998150    9.648890
 N   17.132603   47.887526   11.366425
 C   18.594302   45.113431    9.438209
 C   18.184087   44.973243    8.150841
 C   18.227157   46.141503   10.396436
 C   17.176416   47.095313   10.308380
 N   18.151083   47.487262   12.140949
 C   18.343710   48.090349   13.449949
 C   17.454489   47.482117   14.513487
 C   16.127672   47.897223   14.625410
 N   20.207269   43.623221   10.733280
 C   22.607025   42.089176   15.266559
 N   22.432414   41.955423   13.838417
 C   22.830794   41.225258   11.896109
 C   21.744944   42.128521   11.765233
 C   21.528605   42.574676   13.051674
 O   18.746614   43.906511    7.523230
 C   18.819565   46.444115   11.609203
 C   17.927024   46.483480   15.362285
 C   17.089440   45.908666   16.313537
 C   15.768127   46.331074   16.422294
 C   15.288072   47.326051   15.575555
 H   21.713707   40.935614    9.336740
 H   20.398345   41.643648    7.325916
 H   17.510180   45.551386    7.532984
 H   16.443152   47.222624    9.520760
 H   18.121529   49.154759   13.328714
 H   19.401045   47.984639   13.711844
 H   15.752020   48.667277   13.952903
 H   22.468093   41.119322   15.748751
 H   23.609402   42.463903   15.484175
 H   21.864060   42.793503   15.642545
 H   23.344801   40.653443   11.133081
 H   20.794793   43.269250   13.445641
 H   19.674040   45.992250   12.097412
 H   18.961545   46.153653   15.282118
 H   17.470534   45.131617   16.971989
 H   15.112237   45.884310   17.165689
 H   14.256137   47.659279   15.656400
