44 
6i5i_ligand_xtb.xyz
 C   20.508296   42.811277   10.912006
 C   20.833478   42.012942    9.797696
 C   20.424342   42.372615    8.529139
 N   21.901848   41.408512   13.992789
 C   19.693488   43.546690    8.437133
 C   19.420842   44.295380    9.601901
 N   17.013102   48.189000   10.903571
 C   18.654447   45.430898    9.161920
 C   18.532067   45.270556    7.815832
 C   18.156447   46.463231   10.032005
 C   17.206214   47.479695    9.809381
 N   17.815455   47.669457   11.829921
 C   17.860654   48.206644   13.165081
 C   17.951445   47.103246   14.187580
 C   17.050707   46.044859   14.147133
 N   19.814396   43.939349   10.816667
 C   20.973761   42.614359   15.848490
 N   21.109521   42.379318   14.440919
 C   21.797354   41.422699   12.680616
 C   20.912031   42.434623   12.254451
 C   20.494069   43.025607   13.438422
 O   19.149326   44.149011    7.356248
 C   18.523307   46.630896   11.356391
 C   18.937751   47.114243   15.163511
 C   19.019106   46.088320   16.090056
 C   18.120868   45.036483   16.041914
 C   17.137450   45.015687   15.066263
 H   21.399599   41.107413    9.944681
 H   20.654643   41.774661    7.660555
 H   18.042050   45.875470    7.078064
 H   16.663372   47.705148    8.913571
 H   16.944765   48.790877   13.300673
 H   18.716875   48.885023   13.265350
 H   16.283367   46.028303   13.387171
 H   20.019000   42.228926   16.213943
 H   21.783991   42.093072   16.354536
 H   21.029413   43.682364   16.059122
 H   22.361221   40.725971   12.093660
 H   19.811397   43.832952   13.607376
 H   19.219726   46.073698   11.946948
 H   19.645491   47.930008   15.201665
 H   19.786699   46.112377   16.850157
 H   18.183350   44.236705   16.765063
 H   16.435770   44.196136   15.023030
