30 
6i64_ligand_xtb.xyz
 C   47.875237  -29.859134  -96.076233
 C   46.986975  -25.576082  -96.723427
 C   48.968499  -25.450109  -95.375393
 C   49.570106  -28.641695 -100.581730
 C   47.557828  -29.929467 -100.384494
 C   47.301710  -26.877998  -97.052431
 C   49.273141  -26.756813  -95.713260
 C   49.621712  -28.534163  -99.208612
 C   47.620152  -29.812946  -99.005938
 C   47.821702  -24.851223  -95.878530
 C   48.530910  -29.345857 -101.182338
 C   48.447051  -27.487875  -96.552943
 C   48.652983  -29.118095  -98.395981
 C   48.765268  -28.925993  -96.900547
 O   47.479640  -23.567872  -95.574859
 O   48.508928  -29.436691 -102.541694
 H   48.094179  -29.728136  -95.018467
 H   46.823660  -29.630419  -96.230255
 H   48.058949  -30.897840  -96.342256
 H   46.100623  -25.099088  -97.110476
 H   49.624309  -24.892018  -94.719161
 H   50.322203  -28.189858 -101.208605
 H   46.744659  -30.478288 -100.842888
 H   46.652239  -27.429668  -97.715924
 H   50.169721  -27.209438  -95.313488
 H   50.429984  -27.982077  -98.750811
 H   46.846883  -30.278458  -98.415315
 H   49.807267  -29.121441  -96.619974
 H   48.142906  -23.184806  -94.988452
 H   47.739380  -29.947054 -102.820717
