22 
6i65_ligand_xtb.xyz
 C  -16.738419   -2.402246  -26.659925
 C  -17.817643   -3.414992  -28.697451
 C  -14.682996   -6.622615  -27.205567
 C  -16.777264   -6.733002  -26.043041
 C  -15.013541   -5.360663  -27.658142
 C  -17.094633   -5.469003  -26.503591
 C  -15.567519   -7.319851  -26.391095
 C  -16.220258   -4.761359  -27.317865
 C  -16.562301   -3.380816  -27.823104
 O  -15.212681   -8.563291  -25.960542
 H  -17.580053   -2.691461  -26.035518
 H  -15.843340   -2.384379  -26.041984
 H  -16.920084   -1.397829  -27.036419
 H  -17.685960   -4.113409  -29.520992
 H  -18.683454   -3.727050  -28.118773
 H  -18.017765   -2.427782  -29.108511
 H  -13.745747   -7.085139  -27.471307
 H  -17.471920   -7.269553  -25.408888
 H  -14.315995   -4.830316  -28.290779
 H  -18.041346   -5.034667  -26.218837
 H  -15.727768   -3.029122  -28.439962
 H  -15.914512   -8.927756  -25.408205
