25 
6i66_ligand_ani-2x.xyz
 C   -2.265254    1.230471   -0.767179
 C   -2.197858   -0.253952   -0.418748
 C   -1.147928   -0.575582    0.659991
 C   -1.157824   -2.071117    0.999583
 C    0.237456   -0.101155    0.258567
 C    0.929030    0.834519    1.033431
 C    2.193416    1.286082    0.680725
 C    2.799079    0.800749   -0.477083
 O    4.040006    1.271182   -0.785451
 C    2.128787   -0.132430   -1.266819
 C    0.862464   -0.572454   -0.896043
 H   -2.517284    1.830946    0.115299
 H   -3.021089    1.425515   -1.535052
 H   -1.297525    1.582831   -1.143422
 H   -3.177672   -0.605914   -0.067668
 H   -1.970508   -0.835414   -1.322409
 H   -1.427782   -0.019252    1.566037
 H   -0.825708   -2.667640    0.141757
 H   -0.491334   -2.294485    1.839000
 H   -2.167883   -2.403108    1.267002
 H    0.459277    1.217945    1.938479
 H    2.723690    2.013412    1.288818
 H    4.338746    0.856236   -1.604496
 H    2.594163   -0.516312   -2.173374
 H    0.359135   -1.300775   -1.530441
