59 
6ib2_ligand_aiqm1.xyz
 N   -1.123931   -3.699000    3.737364
 C   -2.360366   -3.553503    3.234479
 O    7.952664    3.121050   -2.770145
 C   -1.746148   -2.113471    1.680416
 C    6.858321    2.006299   -1.004515
 C    5.747614    1.717897   -1.806047
 C    4.663066    1.021012   -1.293445
 C    8.000428    2.762256   -1.611942
 C    9.202133    3.060929   -0.745840
 C   -3.027746   -0.973731   -0.152007
 C   -3.020917   -1.787637   -1.447132
 C   -4.240281   -1.447500   -2.300264
 C   -4.294922    0.060672   -2.542786
 C   -3.140725    0.524053   -0.449190
 C   -0.406279   -2.154700    2.076819
 C   -5.420717    1.301943   -0.678548
 C   -6.674344    1.416860   -1.534703
 C   -7.823607    2.050930   -0.765824
 C   -0.121156   -3.005564    3.173212
 C    0.250164   -1.271406    1.163599
 C    1.652635   -0.907458    1.079019
 C    2.279603   -0.050863    0.206898
 C    4.686791    0.611015    0.038709
 C    5.782573    0.878571    0.853466
 C    6.865744    1.575087    0.327472
 N   -2.769345   -2.799695    2.222501
 N   -1.831777   -1.256952    0.638077
 N   -0.616262   -0.756417    0.306876
 N    1.105486   -3.166815    3.691399
 N    3.580290   -0.091280    0.583765
 N    3.749571   -0.916971    1.631733
 N    2.588388   -1.416489    1.933312
 N   -4.307497    0.775511   -1.274981
 O   -5.400061    1.686574    0.478529
 H   -3.124655   -4.138761    3.729206
 H    5.753430    2.044154   -2.836255
 H    3.816924    0.785449   -1.925461
 H    9.650493    2.136857   -0.378948
 H    8.912833    3.656560    0.120880
 H    9.929139    3.609268   -1.339747
 H   -3.866918   -1.279231    0.468339
 H   -2.990838   -2.854649   -1.210869
 H   -2.106961   -1.548813   -2.002944
 H   -4.195876   -1.974782   -3.254767
 H   -5.152769   -1.765999   -1.789126
 H   -3.400751    0.371241   -3.092840
 H   -5.158100    0.344460   -3.137683
 H   -3.254024    1.088804    0.471698
 H   -2.236491    0.856571   -0.968943
 H   -6.435239    2.011293   -2.421334
 H   -6.956143    0.418999   -1.881504
 H   -8.061944    1.461117    0.117169
 H   -8.712332    2.122232   -1.393304
 H   -7.551194    3.048535   -0.427033
 H    1.904803    0.564627   -0.590168
 H    5.779045    0.529753    1.876643
 H    7.715919    1.780317    0.962224
 H    1.206922   -3.794033    4.466065
 H    1.895136   -2.675476    3.298424
