56 
6ic0_ligand_aiqm1.xyz
 C  142.460320  -37.339136  266.095814
 C  142.705662  -36.134801  266.764374
 N  142.034349  -35.566916  267.820482
 C  140.882258  -36.139939  268.478105
 C  142.645429  -34.372236  268.129651
 C  143.707012  -34.151495  267.290725
 C  143.768039  -35.272354  266.402024
 C  144.608674  -35.641933  265.338553
 C  144.375566  -36.836401  264.684118
 C  143.313771  -37.695409  265.055827
 C  143.061026  -38.962294  264.315684
 C  141.790682  -39.233382  263.870432
 C  144.090911  -39.931125  264.069730
 N  145.351525  -39.712280  264.526176
 C  146.229938  -40.658654  264.301803
 C  145.901794  -41.854451  263.613804
 N  144.695490  -42.092752  263.155120
 C  143.761115  -41.127025  263.381432
 C  142.442859  -41.360616  262.925561
 C  141.463420  -40.418455  263.151770
 N  140.129308  -40.571245  262.774092
 C  139.595914  -41.373653  261.789141
 C  140.330516  -41.772240  260.651238
 N  139.836386  -42.511882  259.665588
 C  138.558352  -42.897325  259.745598
 C  137.741083  -42.555753  260.810710
 C  138.253007  -41.789720  261.860524
 C  137.382492  -41.360687  262.995861
 O  137.553568  -40.317911  263.613520
 N  136.371728  -42.234571  263.297326
 C  135.427136  -42.117510  264.332506
 C  134.783455  -43.264473  264.792475
 N  133.853323  -43.237817  265.744897
 C  133.563801  -42.033787  266.241245
 N  134.111205  -40.877509  265.877337
 C  135.042760  -40.910394  264.921562
 H  141.639105  -37.984000  266.389724
 H  140.050913  -36.245489  267.779763
 H  141.121193  -37.123115  268.884794
 H  140.580385  -35.483377  269.292201
 H  142.261975  -33.770962  268.939959
 H  144.356801  -33.293969  267.315770
 H  145.429197  -35.002997  265.035485
 H  145.025405  -37.136735  263.872598
 H  140.992840  -38.524378  264.068358
 H  147.240134  -40.500715  264.661284
 H  146.658975  -42.613107  263.447518
 H  142.247433  -42.295703  262.422261
 H  139.447718  -40.065531  263.318299
 H  141.353883  -41.437246  260.535287
 H  138.178048  -43.485421  258.921287
 H  136.697345  -42.850321  260.797046
 H  136.428869  -43.134176  262.854336
 H  135.026606  -44.238385  264.373595
 H  132.809409  -41.994828  267.015570
 H  135.493690  -39.973114  264.628856
