56 
6ic0_ligand_xtb.xyz
 C  142.421652  -37.322333  266.064100
 C  142.681236  -36.139742  266.739870
 N  141.992238  -35.533005  267.753074
 C  140.787929  -36.027394  268.354486
 C  142.645002  -34.379895  268.083282
 C  143.753432  -34.218028  267.307082
 C  143.807029  -35.334322  266.431210
 C  144.679766  -35.745794  265.423010
 C  144.425455  -36.922640  264.762301
 C  143.306341  -37.717308  265.070319
 C  143.052282  -38.959251  264.331962
 C  141.783249  -39.279581  263.917909
 C  144.106363  -39.871782  264.036250
 N  145.359201  -39.625491  264.456184
 C  146.281090  -40.509560  264.177191
 C  145.990476  -41.688103  263.465252
 N  144.782628  -41.969913  263.057129
 C  143.807265  -41.075188  263.332661
 C  142.494720  -41.361451  262.925848
 C  141.488850  -40.461505  263.201411
 N  140.161064  -40.662054  262.864767
 C  139.621529  -41.437519  261.885883
 C  140.342069  -41.827630  260.737940
 N  139.836016  -42.528352  259.755274
 C  138.564105  -42.900509  259.821310
 C  137.743809  -42.566461  260.880240
 C  138.260790  -41.829755  261.948724
 C  137.423959  -41.427127  263.102363
 O  137.661068  -40.442006  263.785935
 N  136.374091  -42.266243  263.360508
 C  135.404707  -42.144200  264.345778
 C  134.439692  -43.147625  264.483081
 N  133.487526  -43.094153  265.392026
 C  133.476841  -42.035590  266.184402
 N  134.330828  -41.030592  266.145309
 C  135.289877  -41.073246  265.239539
 H  141.573075  -37.938440  266.322832
 H  139.988989  -36.105415  267.612166
 H  140.953441  -37.016060  268.790640
 H  140.470174  -35.345332  269.141139
 H  142.263820  -33.747031  268.863002
 H  144.450365  -33.405116  267.350239
 H  145.540216  -35.144781  265.169393
 H  145.087217  -37.251589  263.977573
 H  140.970994  -38.595822  264.120753
 H  147.281658  -40.291590  264.526078
 H  146.761591  -42.411438  263.234153
 H  142.312815  -42.302044  262.432706
 H  139.471429  -40.204974  263.459287
 H  141.364226  -41.504078  260.605647
 H  138.194765  -43.468144  258.979466
 H  136.698866  -42.838891  260.842836
 H  136.301742  -43.102895  262.796632
 H  134.438883  -44.018805  263.836924
 H  132.695981  -41.991053  266.930932
 H  135.979377  -40.242855  265.222791
