53 
6iji_ligand_xtb.xyz
 C   19.016846   18.944755  -17.536723
 C   17.527349   20.916926  -17.462926
 O   19.145709   17.747914  -17.363702
 C   15.586006   17.604857  -15.007778
 C   14.788586   15.737005  -14.149570
 C   20.991010   22.018300  -18.555234
 C   22.249478   21.423947  -18.784896
 C   22.433003   20.077035  -18.607553
 C   21.372208   19.265126  -18.195852
 C   20.126444   19.810149  -17.963268
 C   19.916620   21.193118  -18.137735
 C   18.650091   21.763500  -17.899052
 C   18.458939   23.118521  -18.073124
 C   19.516113   23.933932  -18.487689
 C   20.755959   23.398880  -18.723950
 N   17.791307   19.558366  -17.341121
 O   16.423416   21.355215  -17.221464
 C   16.684855   18.706699  -16.929082
 C   16.546372   18.669726  -15.399898
 N   15.957578   16.447533  -14.350685
 C   13.766212   16.519368  -14.727462
 N   14.310642   17.670943  -15.235722
 C   14.520238   14.500687  -13.585933
 C   13.205871   14.081936  -13.589801
 C   12.172470   14.851774  -14.141483
 C   12.449675   16.075852  -14.720233
 C   17.220330   16.072946  -13.876244
 C   17.366491   15.666279  -12.550439
 C   18.625499   15.292417  -12.113582
 N   19.701250   15.307029  -12.882284
 C   19.556650   15.694861  -14.137376
 C   18.347586   16.081758  -14.693880
 C   10.769643   14.321630  -14.100221
 H   23.068930   22.051600  -19.103943
 H   23.400529   19.632690  -18.785657
 H   21.509528   18.203511  -18.055820
 H   17.480036   23.532649  -17.884143
 H   19.347257   24.991871  -18.620106
 H   21.573444   24.028813  -19.043567
 H   16.879777   17.706112  -17.319987
 H   15.764090   19.100083  -17.361422
 H   17.520560   18.492744  -14.940018
 H   16.161848   19.635343  -15.065534
 H   15.302425   13.884055  -13.168306
 H   12.959426   13.123944  -13.155098
 H   11.674102   16.679808  -15.163501
 H   16.519024   15.658814  -11.882843
 H   18.783396   14.970368  -11.092632
 H   20.456202   15.691479  -14.737750
 H   18.298471   16.369134  -15.731401
 H   10.708956   13.365474  -14.618784
 H   10.454221   14.161379  -13.069786
 H   10.079030   15.016344  -14.570441
