34 
6im6_ligand_aiqm1.xyz
 C   81.632558  158.357907   24.221292
 C   81.972883  158.246080   25.580177
 C   82.885741  157.278611   25.982326
 C   81.009611  158.557525   21.501099
 C   81.304610  159.179316   26.561380
 C   82.199776  157.705118   28.335670
 C   83.284335  157.135069   27.430526
 C   84.565760  154.781910   23.059188
 C   80.887490  158.415138   20.002367
 C   82.022223  160.123643   28.688997
 N   81.861420  159.040963   27.896735
 C   82.196516  157.525621   23.270140
 C   83.453517  156.429229   25.014460
 C   83.124674  156.542393   23.674696
 O   83.625194  155.767888   22.678269
 O   81.927156  157.566373   21.941291
 O   81.746637  161.266844   28.380206
 H   80.919290  159.115000   23.928586
 H   80.039617  158.409827   21.988571
 H   81.378207  159.552737   21.771193
 H   80.224878  158.979937   26.575803
 H   81.420948  160.221689   26.269459
 H   82.537515  157.760652   29.370886
 H   81.304551  157.076270   28.307233
 H   84.223650  157.669653   27.610484
 H   83.463782  156.086833   27.674884
 H   85.448296  155.230808   23.522848
 H   84.127021  154.059964   23.753431
 H   84.855849  154.273957   22.144930
 H   81.855629  158.563887   19.525547
 H   80.520137  157.422982   19.742244
 H   80.189180  159.159595   19.618246
 H   82.446176  159.858801   29.670640
 H   84.157671  155.676680   25.343196
