31 
6imb_ligand_ani-2x.xyz
 C   25.050400   -3.757353   24.732888
 C   24.337756   -2.815606   25.484111
 C   23.463819   -1.941725   24.846787
 C   26.444255   -5.624646   23.186007
 C   24.510899   -2.790845   26.992278
 C   22.648693   -1.203790   27.104159
 C   22.724605   -0.867022   25.618628
 C   22.981335   -2.276197   20.689261
 C   24.736753   -0.688547   28.253626
 N   23.967281   -1.586678   27.579995
 C   24.889541   -3.854317   23.361060
 C   23.289483   -2.044138   23.458941
 C   23.984058   -2.979089   22.709733
 O   23.871352   -3.134579   21.367061
 O   25.538714   -4.739704   22.565021
 O   24.355924    0.396828   28.642353
 H   25.736617   -4.421672   25.248523
 H   27.260649   -5.082457   23.680718
 H   25.938921   -6.269298   23.917066
 H   26.855454   -6.241997   22.386274
 H   25.572203   -2.861937   27.257790
 H   24.017041   -3.668270   27.440130
 H   21.966532   -2.046495   27.272528
 H   22.317234   -0.352729   27.702180
 H   21.717481   -0.723869   25.207926
 H   23.248752    0.092596   25.507735
 H   21.951661   -2.400185   21.049161
 H   23.279668   -1.224833   20.793838
 H   23.032004   -2.561589   19.637692
 H   25.767487   -1.056035   28.430553
 H   22.593228   -1.367622   22.972977
