47 
6inz_ligand_ani-2x.xyz
 C    1.306015   -0.759951    0.056041
 C    1.906808   -2.004530   -0.591342
 C    3.229945   -2.357522    0.078958
 C    4.084898   -1.133791    0.147221
 C    3.535256    0.078058    0.097954
 C    4.362930    1.314947    0.146645
 O    1.088252   -3.146828   -0.448068
 O    3.888047   -3.382576   -0.627345
 O    2.206352    0.338532   -0.043386
 O    3.628953    2.431081    0.016492
 O    5.563631    1.314627    0.281981
 C   -3.158810    0.905842    0.524653
 C   -2.109910   -0.112986    0.099265
 C   -0.719912    0.530009   -0.013482
 C   -0.773420    1.809222   -0.860735
 C   -1.919752    2.703786   -0.386632
 C   -2.135904    3.921336   -1.277238
 C   -1.771122   -2.494050    0.541646
 C   -1.430240   -3.528763    1.586287
 N   -2.098139   -1.251795    0.989410
 O   -4.421469    0.324725    0.504332
 O    0.150356   -0.409178   -0.637556
 O    0.408561    2.560920   -0.736879
 O   -3.156464    1.994713   -0.375441
 O   -3.169645    4.735585   -0.775131
 O   -1.699469   -2.757853   -0.655874
 H    1.084979   -0.945713    1.121351
 H    2.090223   -1.780217   -1.653178
 H    3.000021   -2.700680    1.104327
 H    5.157842   -1.233180    0.248409
 H    0.215293   -2.970362   -0.843547
 H    3.248707   -4.104163   -0.703954
 H    4.259111    3.169644    0.058939
 H   -2.922115    1.292258    1.536663
 H   -2.388102   -0.486239   -0.891064
 H   -0.343926    0.790104    0.988425
 H   -0.961174    1.506728   -1.906793
 H   -1.690619    3.053627    0.634800
 H   -2.349253    3.586000   -2.306677
 H   -1.224473    4.524241   -1.300768
 H   -1.712550   -3.241352    2.603093
 H   -0.348859   -3.697221    1.542112
 H   -1.922971   -4.466577    1.319417
 H   -2.176134   -1.094288    1.983756
 H   -5.034547    1.046363    0.320814
 H    1.168731    1.963265   -0.807455
 H   -3.945431    4.164902   -0.690348
