47 
6inz_ligand_xtb.xyz
 C    1.445422   -0.705366    0.196160
 C    2.017459   -1.974322   -0.460672
 C    3.467319   -2.195557    0.002845
 C    4.231203   -0.925030   -0.182735
 C    3.609014    0.254622   -0.190649
 C    4.348979    1.524370   -0.413645
 O    1.284822   -3.108480   -0.104866
 O    4.076001   -3.230433   -0.717942
 O    2.271463    0.438170    0.013215
 O    3.532576    2.577540   -0.500352
 O    5.544484    1.603345   -0.514514
 C   -3.200188    0.806894    0.356985
 C   -2.070438   -0.203694    0.075958
 C   -0.678387    0.443443    0.221208
 C   -0.606128    1.832195   -0.460474
 C   -1.873737    2.656721   -0.187898
 C   -1.914063    3.916086   -1.060014
 C   -1.934648   -2.607554    0.587769
 C   -2.238425   -3.635625    1.650289
 N   -2.223384   -1.338792    0.954953
 O   -4.449766    0.255528    0.160457
 O    0.224558   -0.464056   -0.401212
 O    0.458959    2.599162    0.019702
 O   -3.053882    1.926842   -0.467865
 O   -3.006020    4.730212   -0.741508
 O   -1.456538   -2.881032   -0.495891
 H    1.331152   -0.868604    1.285523
 H    2.008528   -1.815066   -1.549593
 H    3.439712   -2.458789    1.077327
 H    5.291235   -0.985472   -0.355963
 H    0.366433   -3.025547   -0.425651
 H    3.466374   -3.979352   -0.712380
 H    4.040992    3.391314   -0.644519
 H   -3.160657    1.107855    1.420246
 H   -2.144615   -0.572296   -0.954677
 H   -0.426498    0.558888    1.285325
 H   -0.516924    1.655038   -1.544192
 H   -1.867089    2.955515    0.871644
 H   -1.949058    3.608103   -2.114502
 H   -1.011596    4.500895   -0.880377
 H   -1.630291   -3.448603    2.532454
 H   -2.010370   -4.624992    1.265503
 H   -3.288150   -3.588121    1.930304
 H   -2.643355   -1.167235    1.855299
 H   -4.597708    0.159510   -0.789125
 H    1.294119    2.122626   -0.119295
 H   -3.798384    4.179846   -0.772555
