32 
6j10_ligand_aiqm1.xyz
 C   -6.499408   -9.859319   21.019692
 C   -6.005944  -10.471070   23.430714
 C   -5.967844   -8.503883   21.510614
 C   -4.832185   -9.482808   23.536825
 C   -4.638758   -8.674884   22.240566
 O  -10.418042  -12.863694   22.509676
 C   -9.264725  -13.149427   22.150347
 N   -8.333493  -12.115108   22.202286
 O   -8.877858  -10.941688   22.648202
 C   -8.757673  -14.393877   21.687562
 C   -7.436943  -14.532645   21.330283
 C   -6.905983  -15.852808   20.842493
 C   -6.570165  -13.414667   21.429408
 C   -7.019666  -12.192636   21.868610
 C   -6.118102  -10.993125   21.995155
 H   -6.079772  -10.097340   20.037822
 H   -7.581137   -9.810355   20.901601
 H   -6.937535   -9.974048   23.698337
 H   -5.871324  -11.300925   24.128851
 H   -6.688299   -8.047857   22.195166
 H   -5.863091   -7.822364   20.664179
 H   -3.909923  -10.021781   23.766595
 H   -5.019182   -8.805341   24.371720
 H   -4.195855   -7.704478   22.469622
 H   -3.933568   -9.188754   21.579134
 H   -9.809808  -11.268653   22.791261
 H   -9.458932  -15.213140   21.634224
 H   -7.016642  -16.619727   21.610175
 H   -7.457993  -16.189291   19.964259
 H   -5.850261  -15.780310   20.578749
 H   -5.531273  -13.516532   21.157820
 H   -5.121915  -11.354864   21.711453
