32 
6j10_ligand_ani-2x.xyz
 C   -6.439245   -9.836124   20.996885
 C   -6.140604  -10.421262   23.438640
 C   -5.810425   -8.507229   21.464418
 C   -4.908223   -9.511732   23.617502
 C   -4.564632   -8.743951   22.323218
 O  -10.436526  -12.958454   22.620522
 C   -9.293802  -13.189025   22.210254
 N   -8.376601  -12.143880   22.203634
 O   -8.900251  -10.932042   22.599225
 C   -8.742731  -14.420398   21.715660
 C   -7.447334  -14.511349   21.289941
 C   -6.915283  -15.826844   20.761837
 C   -6.595476  -13.379187   21.352143
 C   -7.062688  -12.184954   21.833509
 C   -6.168371  -10.971393   22.007805
 H   -6.022588  -10.121854   20.021590
 H   -7.516028   -9.709078   20.863047
 H   -7.052388   -9.853795   23.632642
 H   -6.131084  -11.250783   24.153218
 H   -6.542510   -7.936322   22.052392
 H   -5.566420   -7.884245   20.596356
 H   -4.039676  -10.109785   23.920811
 H   -5.103169   -8.807469   24.435731
 H   -4.081739   -7.790582   22.566712
 H   -3.831207   -9.314254   21.737553
 H   -9.811322  -11.211226   22.861914
 H   -9.403819  -15.278260   21.686436
 H   -7.011645  -16.621444   21.510590
 H   -7.465775  -16.148010   19.870068
 H   -5.859011  -15.746010   20.492820
 H   -5.567503  -13.471731   21.023453
 H   -5.165224  -11.364730   21.802873
