32 
6j10_ligand_xtb.xyz
 C   -6.467317   -9.891210   21.018630
 C   -6.027415  -10.487703   23.424257
 C   -5.977987   -8.532062   21.528885
 C   -4.867700   -9.496291   23.565017
 C   -4.659793   -8.684771   22.279224
 O  -10.405255  -12.795465   22.413607
 C   -9.255569  -13.107287   22.091088
 N   -8.302911  -12.082618   22.164277
 O   -8.856285  -10.895669   22.590231
 C   -8.757690  -14.357073   21.654734
 C   -7.438346  -14.526114   21.332668
 C   -6.908311  -15.845548   20.869571
 C   -6.559103  -13.432545   21.440496
 C   -7.000505  -12.202698   21.860355
 C   -6.079233  -11.024543   21.989192
 H   -6.031273  -10.104660   20.040500
 H   -7.549501   -9.855318   20.899048
 H   -6.972824   -9.999269   23.654849
 H   -5.896833  -11.314491   24.125559
 H   -6.719765   -8.097107   22.199780
 H   -5.856097   -7.850240   20.685714
 H   -3.947895  -10.033211   23.805491
 H   -5.080225   -8.824204   24.397960
 H   -4.249667   -7.703625   22.523121
 H   -3.939791   -9.185883   21.628852
 H   -9.809893  -11.191824   22.715094
 H   -9.467202  -15.166032   21.588152
 H   -6.123282  -16.190369   21.541018
 H   -7.695827  -16.592817   20.836502
 H   -6.474459  -15.746612   19.875586
 H   -5.518906  -13.559451   21.189761
 H   -5.076439  -11.380691   21.734181
