66 
6j6m_ligand_dft.xyz
 C   -4.327126   -0.661643    1.971004
 C   -4.730207   -2.110754    1.686872
 C   -6.192680   -2.338783   -0.244215
 C    0.796479    3.609966   -1.132877
 C    0.200725    2.509808   -0.371899
 C   -1.080890    2.634781    0.171494
 C   -3.018787    3.636272    1.150060
 C   -3.644046    2.240687    1.161769
 C   -2.610507    1.148876    1.479927
 C   -3.072549   -0.285439    1.171981
 C   -6.350562   -2.395236   -1.761969
 C   -7.812671   -2.524706   -2.171320
 C   -3.721986   -2.019326   -0.525667
 C   -3.280801   -0.566762   -0.322116
 C    0.581697    1.174932   -0.032391
 C    1.838682    0.449176   -0.307395
 C    3.087092    1.036545   -0.076596
 C    4.264154    0.334285   -0.306915
 C    1.795716   -0.873730   -0.759015
 C    2.964066   -1.590259   -0.977511
 C    4.197211   -0.984747   -0.752287
 C    6.426198   -1.635481   -0.243855
 C    6.335357   -1.554941    1.144705
 C    7.503412   -1.532694    1.900040
 C    8.749769   -1.602519    1.283112
 C    8.824481   -1.694628   -0.104320
 C    7.665165   -1.706885   -0.872891
 N    1.952351    3.373784   -1.818911
 N   -1.962932    3.669119    0.155348
 N   -4.913626   -2.314619    0.256257
 N   -1.386333    1.455593    0.747257
 N   -0.370074    0.551634    0.642543
 O   -7.169687   -2.340337    0.490961
 O    5.315605   -1.720688   -1.050643
 O    0.269790    4.725651   -1.152476
 H   -4.151208   -0.528147    3.045892
 H   -5.170483   -0.016751    1.692978
 H   -5.664966   -2.366480    2.183776
 H   -3.945891   -2.796082    2.035428
 H   -2.639631    3.885814    2.154179
 H   -3.772342    4.380690    0.882152
 H   -4.439657    2.201883    1.910304
 H   -4.097515    2.059081    0.182112
 H   -2.374659    1.195753    2.552473
 H   -2.254906   -0.938630    1.504474
 H   -5.915056   -1.488756   -2.202563
 H   -5.768525   -3.237529   -2.155950
 H   -8.396016   -1.677989   -1.802162
 H   -8.254795   -3.431926   -1.752449
 H   -7.899705   -2.563392   -3.261617
 H   -3.897786   -2.227838   -1.580672
 H   -2.922093   -2.695744   -0.194693
 H   -2.350776   -0.382707   -0.869638
 H   -4.052977    0.092118   -0.740009
 H    3.139121    2.057048    0.290324
 H    5.227253    0.800390   -0.127595
 H    0.831003   -1.341532   -0.926199
 H    2.939520   -2.617352   -1.326005
 H    5.363327   -1.508929    1.624536
 H    7.433524   -1.466703    2.981721
 H    9.656551   -1.587507    1.879481
 H    9.791002   -1.752887   -0.595706
 H    7.702081   -1.775857   -1.954990
 H    2.254372    4.105137   -2.444430
 H    2.274040    2.434251   -1.994198
 H   -1.528540    4.544230   -0.117475
