53 
6jay_ligand_ani-2x.xyz
 C    5.373372   -0.477062    0.773573
 C   -3.148735   -1.516484   -1.558745
 C    1.885314   -1.647456   -0.967584
 C    0.498817    0.269345   -0.134719
 C    0.567683   -0.971744   -0.747107
 C   -0.651625   -1.609630   -1.135468
 C   -0.747461    2.209618    0.732419
 C   -0.720514    0.917901    0.061895
 C   -1.915783    0.336768   -0.398904
 C   -2.165958    3.994928    1.495589
 C   -3.196426    2.098894    0.361198
 C    5.921617    0.907828    1.123334
 C   -4.446649    2.770749    0.544915
 C   -4.535839    3.975955    1.169574
 C   -3.358898    4.606811    1.661214
 C    5.288351    1.781857    0.036023
 C    5.333972   -0.424307   -0.754317
 C    4.272106   -1.292421   -1.412690
 C   -4.796894   -2.009002    0.407005
 C   -4.971278   -3.170762    1.230311
 C   -4.093428   -4.089886    0.767687
 C   -3.834574   -2.318708   -0.495567
 N    2.951863   -0.811541   -1.070558
 N   -0.637475   -2.884251   -1.643378
 C   -1.861980   -0.916429   -1.050681
 N   -3.142420    0.938631   -0.242359
 N   -2.061498    2.763502    0.858739
 O    0.220831    2.804188    1.164537
 O    5.061532    0.937228   -1.089264
 O   -3.380030   -3.583213   -0.277330
 O    2.015197   -2.869599   -1.056353
 H    4.355444   -0.599593    1.160481
 H    5.986585   -1.305881    1.142653
 H   -2.977958   -2.141097   -2.448295
 H   -3.822284   -0.702634   -1.838909
 H    1.388633    0.762908    0.251777
 H   -1.213547    4.390414    1.829603
 H    7.014482    0.921228    1.039975
 H    5.654019    1.242986    2.130394
 H   -5.319023    2.260282    0.152542
 H   -5.501791    4.458075    1.293814
 H   -3.408518    5.567273    2.162306
 H    4.326889    2.194762    0.374355
 H    5.926166    2.618161   -0.272475
 H    6.315202   -0.703028   -1.169649
 H    4.346172   -2.327220   -1.072358
 H    4.428119   -1.294015   -2.500185
 H   -5.278812   -1.043563    0.490054
 H   -5.659691   -3.296653    2.053041
 H   -3.854030   -5.103480    1.056781
 H    2.788186    0.176367   -1.201297
 H    0.248816   -3.363323   -1.517815
 H   -1.466745   -3.433278   -1.469985
