24 
6jbe_ligand_xtb.xyz
 C    0.962318   -1.363217   -0.102167
 C    1.691835   -0.059386   -0.468492
 C    0.959216    1.120946    0.182749
 C   -0.516193    1.101320   -0.231657
 C   -1.123012   -0.250211    0.152789
 C   -2.567554   -0.383535   -0.336050
 O    1.176827   -1.570583    1.267202
 O    3.037181   -0.096002   -0.076299
 O    1.519699    2.350330   -0.215374
 O   -1.237022    2.118117    0.408011
 O   -0.390637   -1.325438   -0.437772
 O   -3.136392   -1.603828    0.050110
 H    1.373421   -2.200209   -0.689428
 H    1.685148    0.068195   -1.556075
 H    1.024408    1.018240    1.279249
 H   -0.567626    1.223489   -1.326728
 H   -1.101760   -0.345254    1.247365
 H   -2.578714   -0.275164   -1.429142
 H   -3.166176    0.409138    0.113250
 H    0.688992   -2.353214    1.548626
 H    3.066383   -0.439114    0.827456
 H    2.477800    2.233537   -0.251576
 H   -0.715045    2.927000    0.324920
 H   -2.562896   -2.305459   -0.281064
