41 
6jib_ligand_aiqm1.xyz
 C  -66.602484   31.798479  -21.377561
 C  -61.713841   28.121226  -29.246206
 C  -62.732183   27.815898  -31.424501
 C  -61.477376   27.532051  -31.974620
 C  -60.344107   27.546081  -31.179126
 C  -65.133842   31.546213  -23.440669
 C  -63.062575   30.309574  -23.295048
 C  -63.291996   30.099387  -21.932524
 C  -64.443570   30.585323  -21.335293
 C  -61.774446   29.805715  -23.878340
 C  -61.749654   28.425393  -27.822637
 C  -63.073604   28.681699  -27.149143
 C  -60.595316   28.475572  -27.126606
 C  -65.380619   31.298897  -22.088538
 C  -60.517539   28.841084  -25.665558
 C  -62.940619   28.518473  -25.641867
 O  -67.665626   32.124808  -22.151257
 O  -66.674001   31.902750  -20.185165
 C  -63.979215   31.056159  -24.041217
 O  -60.735188   29.891980  -23.248955
 N  -61.808900   29.297175  -25.159130
 C  -59.305330   28.165618  -27.756305
 O  -58.248331   28.157449  -27.185404
 O  -59.324687   27.847667  -29.089638
 C  -60.474958   27.843537  -29.825212
 C  -62.847070   28.107589  -30.074049
 H  -63.613108   27.810513  -32.049917
 H  -61.386181   27.302812  -33.027280
 H  -59.361376   27.335853  -31.576117
 H  -65.807223   32.159282  -24.030111
 H  -62.547041   29.571084  -21.353835
 H  -64.634663   30.442527  -20.280236
 H  -63.822990   27.981211  -27.514643
 H  -63.421908   29.687636  -27.398930
 H  -59.790710   29.635115  -25.517311
 H  -60.145730   27.990007  -25.087272
 H  -62.784196   27.460851  -25.396127
 H  -63.845456   28.839078  -25.135608
 H  -67.487773   31.888193  -23.065765
 H  -63.779874   31.276807  -25.083132
 H  -63.818195   28.335634  -29.655546
