38 
6jio_ligand_ani-2x.xyz
 C   12.120995  -12.707253  -34.186319
 C   13.604707  -12.696644  -33.836654
 C   10.719536  -11.158521  -35.428202
 C   11.277729  -12.673401  -32.915641
 C   11.790976  -13.917780  -35.053131
 O   11.937269  -11.474957  -34.950811
 O    9.706963  -11.813759  -35.270961
 N   10.747129   -9.986990  -36.150552
 C    9.469222   -9.430840  -36.558851
 C    8.910175   -8.546712  -35.446925
 C    9.967505   -7.609457  -34.895722
 C    9.601324   -6.507894  -34.120737
 C   10.544060   -5.652331  -33.573651
 C   11.908976   -5.877353  -33.791311
 N   12.863629   -4.991093  -33.291627
 C   12.284632   -6.972669  -34.571456
 C   11.333217   -7.828891  -35.121390
 C   11.786967   -8.985700  -35.999002
 H   14.215415  -12.686605  -34.744893
 H   13.854430  -11.816993  -33.235059
 H   13.863467  -13.590343  -33.259635
 H   11.477601  -11.754861  -32.354837
 H   10.213433  -12.716518  -33.155493
 H   11.536379  -13.530791  -32.284994
 H   10.723681  -13.951689  -35.281827
 H   12.353380  -13.873585  -35.991036
 H   12.070187  -14.833768  -34.521393
 H    8.789033  -10.250549  -36.799162
 H    9.635254   -8.838719  -37.468125
 H    8.529922   -9.187453  -34.639765
 H    8.048143   -7.977034  -35.816269
 H    8.544525   -6.317175  -33.940824
 H   10.230023   -4.798567  -32.977057
 H   12.574581   -4.471833  -32.474874
 H   13.788496   -5.381993  -33.175940
 H   13.345018   -7.147998  -34.754040
 H   12.041513   -8.615661  -37.003806
 H   12.686010   -9.451220  -35.591330
