38 
6jio_ligand_aiqm1.xyz
 C   12.091492  -12.560467  -34.138064
 C   13.561142  -12.445354  -33.760021
 C   10.685609  -11.131853  -35.521016
 C   11.210786  -12.470108  -32.900248
 C   11.842163  -13.826877  -34.944015
 O   11.886720  -11.385704  -34.976668
 O    9.696296  -11.821311  -35.374278
 N   10.711338  -10.013092  -36.305839
 C    9.413948   -9.448002  -36.654739
 C    8.895454   -8.582629  -35.509039
 C    9.980801   -7.701937  -34.925118
 C    9.655263   -6.662227  -34.048303
 C   10.629883   -5.863584  -33.465090
 C   11.980029   -6.086219  -33.745264
 N   12.968438   -5.243717  -33.212841
 C   12.318087   -7.121363  -34.616913
 C   11.339365   -7.917866  -35.208105
 C   11.752607   -9.007287  -36.175898
 H   14.185591  -12.467688  -34.654240
 H   13.740803  -11.513229  -33.222374
 H   13.840705  -13.281058  -33.116159
 H   11.390617  -11.523310  -32.387549
 H   10.161050  -12.534949  -33.171932
 H   11.454254  -13.289767  -32.221764
 H   10.794137  -13.909597  -35.216726
 H   12.448592  -13.812619  -35.851671
 H   12.123615  -14.696451  -34.346831
 H    8.732400  -10.267126  -36.872716
 H    9.553379   -8.849782  -37.558407
 H    8.493362   -9.232224  -34.724127
 H    8.061135   -7.969646  -35.856839
 H    8.613706   -6.469304  -33.815407
 H   10.343891   -5.059687  -32.796632
 H   12.701747   -4.822737  -32.335990
 H   13.871617   -5.685550  -33.132909
 H   13.366135   -7.299800  -34.843480
 H   11.921235   -8.569467  -37.165571
 H   12.678108   -9.482008  -35.860518
