56 
6jno_ligand_xtb.xyz
 O   -8.503458  -13.148191   22.484374
 C   -7.650855  -13.049004   21.618815
 C   -7.831527  -12.358148   20.353281
 C   -9.139219  -11.695987   20.019340
 O  -10.095750  -11.775549   20.930163
 O   -9.289820  -11.126303   18.968969
 O   -6.447268  -13.626075   21.855735
 C   -5.430029  -13.578221   20.967214
 C   -4.239182  -14.202474   21.307845
 C   -3.168794  -14.175691   20.425993
 O   -2.036680  -14.803836   20.787136
 C   -3.285866  -13.519438   19.176812
 C   -4.473781  -12.906241   18.851840
 C   -5.565896  -12.918141   19.730215
 C   -6.813516  -12.303773   19.451844
 C   -2.123857  -13.500292   18.261890
 C   -0.939463  -12.919150   18.700983
 C    0.209770  -12.866952   17.920733
 C    1.442257  -12.199072   18.499594
 C    1.088768  -10.839078   19.120039
 C    2.024271  -13.108779   19.591861
 C    2.481488  -11.949205   17.400633
 C    2.659164  -13.155231   16.494383
 C    1.375638  -13.499740   15.729448
 C    1.559346  -14.901157   15.127562
 C    1.143120  -12.496216   14.591006
 C    0.176821  -13.461604   16.657401
 C   -1.017855  -14.025407   16.220258
 C   -2.171569  -14.061203   16.984751
 C   -3.410558  -14.705691   16.441085
 H   -9.793022  -12.280573   21.725237
 H   -4.142201  -14.709684   22.253121
 H   -1.373111  -14.712444   20.083500
 H   -4.572112  -12.392323   17.908259
 H   -6.971584  -11.783886   18.517080
 H   -0.933901  -12.462240   19.680023
 H    0.504534  -10.241960   18.423014
 H    0.522982  -10.944718   20.041362
 H    2.003315  -10.298350   19.354258
 H    1.307148  -13.249444   20.397549
 H    2.277326  -14.087612   19.191881
 H    2.923750  -12.662917   20.010511
 H    3.437095  -11.693941   17.863484
 H    2.167591  -11.090557   16.804538
 H    2.959052  -14.017848   17.092405
 H    3.459943  -12.960245   15.777968
 H    2.520347  -14.954979   14.620312
 H    1.539647  -15.658770   15.908403
 H    0.788070  -15.135982   14.399860
 H    1.021366  -11.487871   14.978133
 H    1.986674  -12.505627   13.904183
 H    0.243830  -12.751437   14.035697
 H   -1.059658  -14.466415   15.236333
 H   -4.029809  -15.109391   17.238770
 H   -4.004238  -13.977669   15.888217
 H   -3.149232  -15.508869   15.755800
