78 
6k2n_ligand_xtb.xyz
 C   -3.073317    1.908031   -1.389071
 C   -4.250781    1.008070   -1.798663
 C   -4.744611    1.389535   -3.203069
 C   -4.941977    2.914533   -3.301727
 C   -3.689429    3.654885   -2.834191
 C   -3.891754    5.172681   -2.824468
 C   -4.571996   -1.445376   -1.724406
 C   -3.891914   -2.745919   -1.384324
 N   -3.770498   -0.362415   -1.722097
 O   -5.977336    0.812440   -3.541668
 O   -5.235203    3.280375   -4.622831
 O   -3.372389    3.275265   -1.505506
 O   -2.739984    5.840942   -2.389357
 O   -5.761554   -1.380484   -1.996085
 O   -0.654066    0.123025   -1.239218
 C    0.015461   -1.069994   -1.540482
 O   -0.624431   -2.138441   -0.928050
 C    1.500574   -0.904065   -1.143990
 N    2.375657   -1.971925   -1.596588
 C    1.551721   -0.712400    0.377336
 O    2.920328   -0.596515    0.758300
 C    0.762752    0.565740    0.723103
 O    1.403961    1.691904    0.182601
 C   -0.658295    0.453715    0.147563
 C   -1.414972    1.780613    0.305484
 O   -2.771882    1.641022   -0.057523
 C    2.401689   -3.218140   -1.072649
 O    1.520432   -3.643090   -0.343593
 C    3.604768   -4.037573   -1.459465
 C    3.227439   -1.142399    1.996858
 C    4.750523   -1.053537    2.164284
 C    5.126804   -1.639037    3.526644
 C    4.349646   -0.888182    4.621245
 C    2.842237   -0.904434    4.302165
 C    2.027390   -0.039898    5.280810
 O    5.417685   -1.772384    1.155429
 O    6.496772   -1.473786    3.793211
 O    4.821959    0.431770    4.717092
 O    2.571249   -0.426060    3.001911
 O    2.229519    1.326688    5.113320
 H   -2.215481    1.671913   -2.047831
 H   -5.073199    1.149467   -1.084684
 H   -3.975362    1.086769   -3.937763
 H   -5.777917    3.184894   -2.635625
 H   -2.850062    3.402480   -3.501867
 H   -4.103970    5.512347   -3.838510
 H   -4.746272    5.405866   -2.174904
 H   -4.144054   -3.487171   -2.138999
 H   -2.814672   -2.640296   -1.307297
 H   -4.287760   -3.098990   -0.433891
 H   -2.798517   -0.470639   -1.468815
 H   -6.086529   -0.023324   -3.036141
 H   -5.903082    2.653797   -4.934230
 H   -2.487431    5.443318   -1.546615
 H   -0.062405   -1.159011   -2.638406
 H    0.034394   -2.806287   -0.632105
 H    1.846262    0.024587   -1.607269
 H    3.156263   -1.688790   -2.166615
 H    1.104175   -1.570618    0.890089
 H    0.696210    0.654789    1.816858
 H    2.291479    1.721721    0.562467
 H   -1.193819   -0.334942    0.694609
 H   -1.401102    2.068357    1.358271
 H   -0.917921    2.550084   -0.289116
 H    3.378933   -5.091228   -1.322076
 H    4.434493   -3.776592   -0.802766
 H    3.896947   -3.854697   -2.489787
 H    2.916230   -2.210485    2.035508
 H    5.032317    0.009824    2.137219
 H    4.857087   -2.706120    3.538510
 H    4.506776   -1.409681    5.578976
 H    2.506520   -1.953270    4.382823
 H    0.963091   -0.217088    5.107398
 H    2.280745   -0.362983    6.303072
 H    5.098518   -1.435519    0.310094
 H    6.985630   -1.807240    3.031301
 H    5.788457    0.381633    4.701914
 H    3.182753    1.477548    5.038165
