78 
6k2n_ligand_ani-2x.xyz
 C   -3.056364    1.872378   -1.323574
 C   -4.170366    0.986548   -1.881692
 C   -4.644446    1.494159   -3.254212
 C   -4.882508    3.002217   -3.223158
 C   -3.682685    3.725300   -2.640144
 C   -3.892681    5.225699   -2.481278
 C   -4.412195   -1.475627   -2.070875
 C   -3.708744   -2.797041   -1.869580
 N   -3.640180   -0.371622   -1.933591
 O   -5.864067    0.939363   -3.673732
 O   -5.119169    3.479132   -4.525436
 O   -3.427491    3.224487   -1.327850
 O   -2.754636    5.827877   -1.911323
 O   -5.616341   -1.403914   -2.324587
 O   -0.660490    0.045792   -1.183865
 C   -0.065934   -1.193272   -1.487473
 O   -0.809890   -2.197807   -0.861250
 C    1.413743   -1.118639   -1.068393
 N    2.205591   -2.258268   -1.527456
 C    1.515056   -0.869689    0.444336
 O    2.896690   -0.685568    0.760037
 C    0.718850    0.399992    0.804617
 O    1.358570    1.542855    0.284073
 C   -0.689589    0.326490    0.220234
 C   -1.452424    1.632327    0.400692
 O   -2.802858    1.480856   -0.011864
 C    2.095123   -3.540314   -1.105827
 O    1.147029   -3.953398   -0.435745
 C    3.205114   -4.476663   -1.525686
 C    3.278716   -1.140632    2.027685
 C    4.782986   -0.942526    2.180431
 C    5.229420   -1.342681    3.577177
 C    4.437594   -0.566069    4.624065
 C    2.934297   -0.685492    4.347898
 C    2.097164    0.238591    5.227549
 O    5.526985   -1.735678    1.273939
 O    6.594606   -1.018079    3.767651
 O    4.819771    0.796147    4.580840
 O    2.609472   -0.373552    2.999075
 O    2.223639    1.597389    4.903404
 H   -2.144689    1.750754   -1.934817
 H   -5.021771    1.026767   -1.188367
 H   -3.850726    1.282848   -3.995066
 H   -5.747889    3.185433   -2.562983
 H   -2.798750    3.555224   -3.278496
 H   -4.056572    5.681577   -3.460990
 H   -4.792906    5.400494   -1.868252
 H   -4.336519   -3.592891   -2.273366
 H   -2.721735   -2.808995   -2.338938
 H   -3.562889   -2.971818   -0.798910
 H   -2.666385   -0.489783   -1.672058
 H   -5.951138    0.042731   -3.287329
 H   -5.848409    2.948091   -4.875994
 H   -2.574344    5.330546   -1.101109
 H   -0.126617   -1.315734   -2.581579
 H   -0.235261   -2.985830   -0.716180
 H    1.827916   -0.247805   -1.574298
 H    3.046491   -2.026181   -2.033863
 H    1.118359   -1.733993    0.992349
 H    0.632118    0.472026    1.900487
 H    2.281734    1.485420    0.567501
 H   -1.238819   -0.480835    0.728037
 H   -1.485806    1.905146    1.462426
 H   -0.956881    2.438358   -0.154276
 H    2.762486   -5.299974   -2.092475
 H    3.658362   -4.904438   -0.627256
 H    3.982120   -3.999338   -2.129373
 H    3.011546   -2.210083    2.132894
 H    4.997934    0.127041    2.047207
 H    5.064566   -2.423145    3.712946
 H    4.643826   -0.980665    5.623366
 H    2.637068   -1.729454    4.556986
 H    1.042758   -0.018631    5.085581
 H    2.351735    0.041679    6.284018
 H    5.304302   -1.422810    0.388405
 H    7.057415   -1.300836    2.964572
 H    5.784754    0.801405    4.480416
 H    3.175158    1.776230    4.843976
