78 
6k2n_ligand_aiqm1.xyz
 C   -2.975837    2.001909   -1.479295
 C   -4.055121    0.956141   -1.756466
 C   -4.680571    1.225310   -3.125067
 C   -5.163386    2.668812   -3.168444
 C   -4.016839    3.619025   -2.859824
 C   -4.450674    5.066415   -2.816336
 C   -4.240218   -1.463923   -1.399123
 C   -3.476195   -2.739636   -1.150672
 N   -3.480004   -0.377068   -1.670141
 O   -5.781144    0.398441   -3.450329
 O   -5.679456    2.996566   -4.443096
 O   -3.499252    3.314473   -1.559614
 O   -3.366459    5.926593   -2.517881
 O   -5.468609   -1.405142   -1.377828
 O   -0.259868    0.560560   -1.518319
 C    0.337701   -0.660350   -1.837310
 O   -0.515437   -1.681945   -1.394001
 C    1.761609   -0.720872   -1.245851
 N    2.489395   -1.922911   -1.639378
 C    1.700043   -0.491034    0.267511
 O    3.040830   -0.531698    0.776297
 C    1.025091    0.857439    0.540214
 O    1.769181    1.939750    0.005182
 C   -0.353352    0.826870   -0.111642
 C   -1.141194    2.114168    0.033152
 O   -2.516412    1.829836   -0.178546
 C    2.294622   -3.146622   -1.100744
 O    1.327911   -3.401418   -0.384748
 C    3.345951   -4.172728   -1.429893
 C    3.150418   -1.145611    2.016621
 C    4.628927   -1.369145    2.287939
 C    4.795157   -2.015539    3.646705
 C    4.136938   -1.135454    4.700772
 C    2.688715   -0.831199    4.308414
 C    1.996616    0.140964    5.241961
 O    5.214972   -2.233440    1.324561
 O    6.161388   -2.137151    3.997239
 O    4.851039    0.082523    4.828189
 O    2.598589   -0.291575    2.991903
 O    2.478282    1.461126    5.174907
 H   -2.169308    1.896651   -2.219216
 H   -4.844014    1.052260   -1.005302
 H   -3.907125    1.089902   -3.897235
 H   -5.939216    2.792180   -2.397167
 H   -3.224836    3.491695   -3.615232
 H   -4.832456    5.355382   -3.793609
 H   -5.254497    5.174844   -2.077523
 H   -4.180512   -3.555554   -1.020837
 H   -2.802667   -2.947685   -1.981875
 H   -2.857565   -2.634482   -0.258865
 H   -2.472544   -0.472553   -1.636125
 H   -5.908064   -0.259274   -2.749534
 H   -6.279489    2.286308   -4.686294
 H   -3.016847    5.652854   -1.666640
 H    0.396449   -0.693077   -2.929597
 H   -0.009020   -2.393614   -0.967299
 H    2.304838    0.116240   -1.675448
 H    3.322697   -1.787398   -2.184356
 H    1.104715   -1.268834    0.754193
 H    0.910379    0.972555    1.619162
 H    2.561229    2.032516    0.537730
 H   -0.926889    0.022675    0.363879
 H   -1.056978    2.473431    1.058326
 H   -0.768769    2.879970   -0.647822
 H    2.905458   -5.162709   -1.376288
 H    4.141937   -4.108546   -0.686198
 H    3.781093   -4.011264   -2.415335
 H    2.602107   -2.103406    2.019003
 H    5.119814   -0.393250    2.294817
 H    4.314494   -3.000132    3.635392
 H    4.141446   -1.672922    5.653988
 H    2.149484   -1.791179    4.350240
 H    0.940657    0.175509    4.974125
 H    2.077503   -0.265671    6.258813
 H    5.172776   -1.781963    0.478626
 H    6.611803   -2.536662    3.249442
 H    5.777645   -0.152471    4.930539
 H    3.440828    1.414815    5.182800
