62 
6k9u_ligand_aiqm1.xyz
 C   15.529858   13.414440   18.676254
 C   14.802674   14.726763   18.567183
 C   14.865013   15.664164   19.636648
 C   14.211602   16.867639   19.566618
 C   13.457730   17.203225   18.417887
 N   12.798636   18.398050   18.368106
 C   12.125054   18.675638   17.276913
 C   11.379609   19.973870   17.233563
 C   14.071249   15.046848   17.447056
 C   13.391746   16.285395   17.351574
 N   12.680790   16.574727   16.222969
 C   12.085941   17.741761   16.173017
 C   11.335640   18.040739   14.934338
 C   10.451594   17.160901   14.282943
 C   10.007882   17.848175   13.163077
 N    9.155176   17.517689   12.170957
 C    8.963102   18.444287   11.239842
 N    8.121699   18.134036   10.231588
 C    7.499224   16.821891   10.110454
 C    6.917400   16.847191    8.698022
 C    6.573214   18.321973    8.492229
 C    7.729603   19.050866    9.175504
 C    9.594174   19.733890   11.246628
 C   10.464929   20.038102   12.269058
 N   10.644087   19.074777   13.219678
 N   11.464943   19.213944   14.297924
 N   11.181354   21.165141   12.452857
 C   11.107735   22.343726   11.599961
 C   12.326511   23.227130   11.818773
 C   12.211105   24.497486   10.985447
 O   11.024193   25.208570   11.291448
 C    9.872775   24.430886   11.007091
 C    9.840300   23.164769   11.849615
 H   16.600948   13.573896   18.812653
 H   15.173261   12.842834   19.534961
 H   15.384002   12.812915   17.779059
 H   15.440481   15.417645   20.522218
 H   14.251763   17.585163   20.376039
 H   11.377536   20.415199   18.228953
 H   11.856528   20.659756   16.532957
 H   10.356874   19.821139   16.888144
 H   13.996310   14.364753   16.607395
 H   10.202354   16.159321   14.572515
 H    6.729630   16.695187   10.879069
 H    8.241260   16.037685   10.257942
 H    6.054206   16.191989    8.595983
 H    7.673309   16.531878    7.976071
 H    5.635451   18.563536    8.995798
 H    6.478095   18.599811    7.443173
 H    8.562890   19.226981    8.484467
 H    7.425463   20.016636    9.585700
 H    9.415013   20.447142   10.459713
 H   11.775805   21.167212   13.268613
 H   11.096964   22.005256   10.555744
 H   13.237976   22.687899   11.552812
 H   12.381501   23.494179   12.878410
 H   12.226139   24.245441    9.916166
 H   13.036660   25.173646   11.193732
 H    9.857728   24.170678    9.939114
 H    9.016117   25.066564   11.218724
 H    9.800015   23.432010   12.909194
 H    8.951778   22.572758   11.621662
