62 
6k9u_ligand_ani-2x.xyz
 C   13.676049   13.039929   19.454620
 C   13.768284   14.465635   18.975125
 C   14.566203   15.400363   19.693664
 C   14.674850   16.704485   19.288980
 C   13.986077   17.149974   18.134104
 N   14.099676   18.451204   17.737398
 C   13.451603   18.833803   16.667013
 C   13.622429   20.286192   16.288026
 C   13.096732   14.887440   17.854335
 C   13.194694   16.235167   17.416347
 N   12.524070   16.628893   16.308317
 C   12.635110   17.882555   15.930724
 C   11.864579   18.223798   14.704478
 C   11.113339   17.247605   14.043180
 C   10.528774   17.887028   12.956147
 N    9.703559   17.484825   11.969107
 C    9.335601   18.416501   11.088120
 N    8.495547   18.009251   10.101831
 C    8.055800   16.625771    9.992784
 C    7.372930   16.581158    8.624808
 C    6.826447   18.001581    8.455219
 C    7.904487   18.881415    9.092910
 C    9.774354   19.783562   11.126817
 C   10.614765   20.158277   12.145796
 N   10.978529   19.190766   13.046129
 N   11.788061   19.418603   14.107503
 N   11.166856   21.378929   12.364007
 C   10.715398   22.583334   11.692213
 C   11.693608   23.717619   11.988157
 C   11.206517   25.022988   11.370357
 O    9.905268   25.352367   11.812897
 C    8.963599   24.355898   11.466507
 C    9.302458   23.012879   12.102530
 H   14.664154   12.567621   19.474367
 H   13.268851   12.992874   20.470391
 H   13.030122   12.442548   18.804813
 H   15.097129   15.061664   20.581929
 H   15.278956   17.430595   19.824957
 H   14.304602   20.743028   17.007158
 H   14.024099   20.388542   15.275834
 H   12.663512   20.812209   16.304525
 H   12.473325   14.217574   17.266850
 H   11.028755   16.217109   14.349102
 H    7.363757   16.388365   10.811321
 H    8.907620   15.945840   10.081275
 H    6.596712   15.813715    8.572632
 H    8.114982   16.364378    7.848040
 H    5.885926   18.112233    9.006264
 H    6.639128   18.268544    7.412413
 H    8.661635   19.190088    8.360032
 H    7.484835   19.783814    9.549325
 H    9.463547   20.500170   10.375810
 H   11.583104   21.479102   13.283090
 H   10.720946   22.392945   10.608114
 H   12.690310   23.457363   11.613891
 H   11.764589   23.838890   13.078303
 H   11.217990   24.939593   10.269133
 H   11.850148   25.861014   11.652527
 H    8.921573   24.248088   10.367902
 H    7.990053   24.719025   11.807579
 H    9.256845   23.108237   13.195253
 H    8.569141   22.252835   11.809219
