43 
6kdz_ligand_xtb.xyz
 C   26.577424    3.732010   56.849577
 C   25.310567    3.892015   57.385813
 C   26.951690    4.459017   55.719308
 C   24.471653    4.791493   56.744450
 C   24.965645    5.474940   55.601018
 C   23.130318    5.258296   56.942371
 C   18.999621    3.316479   60.025901
 C   18.237873    3.259248   61.986012
 C   16.230234    1.767833   62.974266
 C   20.755079    6.496562   56.781777
 C   16.524682    1.606570   61.644327
 C   21.691864    6.865940   55.768228
 C   16.967888    2.684061   63.757305
 C   21.051806    5.581456   57.760275
 C   15.838810    0.685931   60.699254
 C   16.649541    2.862072   65.205187
 C   19.845237    3.695030   58.868424
 C   20.061238    5.211413   58.820244
 N   26.176000    5.323184   55.086724
 N   23.995858    6.294576   55.137323
 N   19.156099    3.850575   61.248769
 N   18.028861    2.416379   59.934472
 N   22.244876    4.952071   57.843429
 N   17.945971    3.407765   63.265873
 N   22.898567    6.165377   55.942150
 N   17.531773    2.361407   61.169071
 O   21.580090    7.649649   54.844062
 H   27.280637    3.049260   57.298410
 H   24.979615    3.351923   58.258615
 H   27.938558    4.340908   55.293445
 H   15.434991    1.195087   63.422811
 H   19.790891    6.977090   56.745498
 H   15.054362    0.128024   61.201329
 H   15.414558    1.258430   59.875388
 H   16.564860   -0.002722   60.269145
 H   15.618322    3.189598   65.325860
 H   16.767856    1.918258   65.734810
 H   17.317220    3.603211   65.632717
 H   19.372844    3.332038   57.954762
 H   20.822559    3.217038   58.969580
 H   19.115017    5.723674   58.645727
 H   20.447746    5.517356   59.794747
 H   23.980095    6.932779   54.357344
