43 
6kdz_ligand_ani-2x.xyz
 C   26.725039    3.927343   57.070505
 C   25.448678    4.115785   57.587535
 C   27.059160    4.499802   55.834531
 C   24.571597    4.881769   56.827346
 C   25.033326    5.408307   55.608342
 C   23.208139    5.282688   56.952757
 C   18.885437    3.427655   60.012403
 C   18.251060    3.241588   62.011926
 C   16.190631    1.788454   62.996504
 C   20.721931    6.290653   56.602716
 C   16.401801    1.744523   61.651015
 C   21.647165    6.544862   55.521445
 C   17.051012    2.585337   63.819361
 C   21.104779    5.571043   57.716676
 C   15.611103    0.971219   60.649302
 C   16.815848    2.631251   65.305275
 C   19.702388    3.817635   58.819062
 C   20.114173    5.295568   58.819277
 N   26.236600    5.237312   55.089362
 N   24.036676    6.184152   55.038196
 N   19.173067    3.849945   61.261579
 N   17.855274    2.602767   59.901241
 N   22.325096    5.030902   57.905105
 N   18.051811    3.291172   63.339212
 N   22.901374    5.997917   55.825788
 N   17.448044    2.487907   61.187861
 O   21.454961    7.130960   54.468782
 H   27.462625    3.340416   57.610056
 H   25.151464    3.683482   58.539506
 H   28.056521    4.350539   55.425139
 H   15.376889    1.224292   63.442499
 H   19.716798    6.679746   56.499878
 H   16.246272    0.246934   60.129188
 H   14.795039    0.437543   61.142278
 H   15.193627    1.637413   59.887586
 H   15.813378    3.012009   65.527967
 H   16.892604    1.629582   65.741504
 H   17.556645    3.281982   65.774158
 H   19.139374    3.567047   57.913794
 H   20.616325    3.207300   58.801516
 H   19.232396    5.938220   58.707213
 H   20.582139    5.539189   59.778379
 H   23.861135    6.179090   54.042034
