46 
6ke0_ligand_xtb.xyz
 C   -5.886100   -2.599761   -0.677467
 C   -6.656151   -1.475956   -0.382764
 C   -4.505378   -2.562861   -0.654896
 C   -6.073630   -0.265882   -0.053528
 C   -3.895884   -1.361051   -0.325964
 C   -4.692193   -0.221871   -0.028400
 C    1.724209   -0.458706    0.077139
 C    3.624937   -0.263299   -0.795136
 C   -2.545979    0.205048    0.106465
 C    6.041523   -0.512939    0.358763
 C    4.948023   -0.698389    1.165333
 C    5.867910   -0.210525   -1.010681
 C   -0.225962    0.969506    0.504958
 C   -3.734927    2.138200    0.659394
 C   -2.218617    2.447497    0.590993
 C    4.970568   -1.016659    2.617494
 C    7.056473   -0.010498   -1.892462
 C   -1.869193    3.389965   -0.555828
 C    0.247672   -0.438965    0.214144
 N   -2.553331   -1.050445   -0.226895
 N    2.340405   -0.198843   -1.085842
 N    2.535056   -0.697370    1.098425
 N    4.684700   -0.091300   -1.564963
 N   -3.782651    0.768119    0.238998
 N    3.748812   -0.573726    0.568595
 N   -1.581281    1.137663    0.379895
 O    0.481285    1.892788    0.833660
 H   -6.386580   -3.522746   -0.929966
 H   -7.732831   -1.552055   -0.412515
 H   -3.909787   -3.431584   -0.883313
 H   -6.669175    0.605376    0.174645
 H    7.034510   -0.595777    0.769820
 H   -4.135905    2.249297    1.673547
 H   -4.304571    2.783529   -0.015744
 H   -1.841232    2.864323    1.530069
 H    4.398896   -0.265643    3.160959
 H    5.988936   -1.050280    2.992545
 H    4.483369   -1.975739    2.789218
 H    7.660904    0.817407   -1.525654
 H    6.723377    0.205003   -2.902624
 H    7.676655   -0.905270   -1.897128
 H   -2.337534    4.358168   -0.398650
 H   -0.791769    3.524019   -0.597350
 H   -2.208936    2.975991   -1.502969
 H   -0.222553   -0.794598   -0.702541
 H   -0.062282   -1.084911    1.037311
