46 
6ke0_ligand_ani-2x.xyz
 C   -5.934467   -2.619285   -0.705789
 C   -6.693066   -1.521017   -0.259605
 C   -4.551272   -2.562752   -0.794680
 C   -6.085533   -0.331049    0.108728
 C   -3.915798   -1.374143   -0.427565
 C   -4.700302   -0.285230    0.012201
 C    1.821923   -0.345389   -0.161837
 C    3.784003   -0.349331   -0.919350
 C   -2.563740    0.181243    0.021343
 C    6.111781   -0.516268    0.452325
 C    4.955502   -0.536953    1.176123
 C    6.048383   -0.410169   -0.969852
 C   -0.240345    1.041986    0.328497
 C   -3.752489    2.010313    0.887578
 C   -2.281134    2.433222    0.667333
 C    4.819896   -0.643915    2.654380
 C    7.318531   -0.387344   -1.773536
 C   -2.120519    3.470003   -0.438697
 C    0.328611   -0.305030   -0.117567
 N   -2.553450   -1.051188   -0.410489
 N    2.505012   -0.289291   -1.317270
 N    2.540799   -0.450311    0.943707
 N    4.913293   -0.329811   -1.638095
 N   -3.788740    0.705090    0.273110
 N    3.803247   -0.449658    0.454397
 N   -1.619331    1.149458    0.311930
 O    0.442268    1.981488    0.687398
 H   -6.444255   -3.536918   -0.987295
 H   -7.774140   -1.608353   -0.203261
 H   -3.979416   -3.420336   -1.139619
 H   -6.653701    0.526013    0.458814
 H    7.071817   -0.580279    0.954863
 H   -4.006030    1.952054    1.950546
 H   -4.458637    2.687427    0.400903
 H   -1.826274    2.806488    1.586526
 H    4.277485    0.218193    3.055883
 H    5.805455   -0.695678    3.122508
 H    4.248136   -1.537016    2.926572
 H    8.197494   -0.459048   -1.129604
 H    7.379220    0.538745   -2.352995
 H    7.329534   -1.221703   -2.481228
 H   -2.629952    4.398768   -0.158978
 H   -1.061703    3.687954   -0.597574
 H   -2.549651    3.099263   -1.375529
 H   -0.058820   -0.543010   -1.113595
 H   -0.045835   -1.082983    0.557436
