68 
6kjd_ligand_dft.xyz
 O    2.913412   -2.262853   -0.541412
 O    5.224713    1.603529   -0.052896
 O    3.299710   -1.355237   -2.562401
 O    3.127275    3.288353    0.831451
 O   -1.457898   -1.190021    0.087280
 C   -4.298028    1.823503    0.656314
 C   -3.812340    0.690553   -0.132279
 C    2.365325    2.380409    0.062883
 C   -3.544309    2.890049    0.940104
 C   -2.426709    0.834749   -0.737333
 C    3.589044   -1.483040   -1.395890
 C   -2.108662    3.031219    0.507556
 C   -1.496894    1.646851    0.195143
 C    4.228679    0.784099   -0.659455
 C   -4.574454   -0.394848   -0.321940
 C   -1.857227   -0.527337   -1.136365
 C    0.925975    2.443439    0.573097
 C    2.944804    0.965295    0.138755
 C   -0.065456    1.729741   -0.347393
 C   -2.873789   -1.378964   -1.884106
 C   -2.000306    4.047860   -0.641701
 C    4.678952   -0.688771   -0.710632
 C   -4.176154   -1.617050   -1.102646
 C   -4.116684   -2.847405   -0.180926
 C   -0.406970   -2.004868    0.062915
 C   -0.063697   -2.488334    1.455788
 O    0.208995   -2.274970   -0.953980
 C    0.848158   -1.425269    2.109442
 C    0.568229   -3.879609    1.422022
 C    1.104756   -1.677770    3.592915
 H    2.057756   -2.523535   -0.951099
 H    5.975081    1.671280   -0.655076
 H    4.057392    3.076491    0.657775
 H   -5.326775    1.773628    1.008301
 H    2.361105    2.691088   -0.999422
 H   -3.973576    3.718630    1.500349
 H   -2.528245    1.396506   -1.679123
 H   -1.551886    3.447909    1.357753
 H   -1.458597    1.104410    1.149661
 H    4.049934    1.114318   -1.693205
 H   -5.559769   -0.426582    0.143833
 H   -0.966494   -0.411287   -1.756206
 H    0.671080    3.503419    0.681680
 H    0.887605    2.007109    1.581051
 H    3.132861    0.718117    1.191795
 H    2.210505    0.247149   -0.236185
 H    0.296116    0.710329   -0.514528
 H   -0.065171    2.210210   -1.335854
 H   -2.408307   -2.329304   -2.166376
 H   -3.099361   -0.847550   -2.816823
 H   -2.474669    3.669489   -1.553636
 H   -2.507799    4.980145   -0.372609
 H   -0.958125    4.292401   -0.870688
 H    4.863490   -1.057400    0.301050
 H    5.598922   -0.768922   -1.299051
 H   -4.966714   -1.815128   -1.840459
 H   -3.863182   -3.748457   -0.751001
 H   -3.368847   -2.710055    0.604725
 H   -5.086080   -3.015162    0.301147
 H   -1.004533   -2.520047    2.017943
 H    0.382424   -0.439269    1.986944
 H    1.797707   -1.403489    1.563455
 H    1.561947   -3.848619    0.966435
 H   -0.048819   -4.579750    0.850855
 H    0.672594   -4.275067    2.436116
 H    0.163897   -1.727910    4.152800
 H    1.647298   -2.614018    3.757059
 H    1.706124   -0.868486    4.018658
