68 
6kjd_ligand_aiqm1.xyz
 O    2.100757    3.128662    0.094542
 O    5.139232    0.703738   -2.250267
 O    3.529398    2.132989    1.511337
 O    3.546081   -1.651428   -2.743988
 O   -1.454134    0.533581    0.775122
 C   -3.022563   -3.335878    0.610944
 C   -2.625543   -2.184999    1.428645
 C    2.945088   -1.192991   -1.541041
 C   -2.179955   -3.961135   -0.219809
 C   -1.164612   -1.775865    1.362927
 C    3.268930    2.556581    0.411340
 C   -0.743785   -3.537246   -0.412904
 C   -0.573593   -2.056918   -0.026800
 C    4.289895    0.916387   -1.122647
 C   -3.515392   -1.561034    2.214536
 C   -0.971952   -0.335515    1.836475
 C    1.544805   -1.788325   -1.474620
 C    2.935316    0.333408   -1.478260
 C    0.880728   -1.578228   -0.112580
 C   -1.713902   -0.063385    3.135973
 C    0.184731   -4.493884    0.345348
 C    4.189652    2.410492   -0.773240
 C   -3.221157   -0.355996    3.071672
 C   -4.034976    0.854468    2.599607
 C   -0.915057    1.748678    0.693341
 C   -1.466705    2.561147   -0.454763
 O   -0.041649    2.132119    1.445862
 C   -0.672354    2.201256   -1.722053
 C   -1.409223    4.048746   -0.121116
 C   -1.271188    2.801834   -2.988379
 H    1.469232    2.967939    0.823387
 H    6.048349    0.852259   -1.985291
 H    4.316615   -1.096627   -2.907753
 H   -4.048435   -3.678394    0.705645
 H    3.524038   -1.568888   -0.680477
 H   -2.517354   -4.830848   -0.774853
 H   -0.621020   -2.391167    2.090171
 H   -0.515297   -3.640876   -1.479110
 H   -1.163002   -1.468577   -0.749810
 H    4.699911    0.391490   -0.251603
 H   -4.547183   -1.903892    2.210436
 H    0.084442   -0.120584    1.988511
 H    1.623048   -2.854416   -1.699123
 H    0.938568   -1.342995   -2.271673
 H    2.630423    0.718204   -2.455323
 H    2.202693    0.673731   -0.745654
 H    0.905760   -0.511284    0.136459
 H    1.475885   -2.082615    0.659655
 H   -1.539903    0.970652    3.436689
 H   -1.249485   -0.692649    3.899763
 H    0.043223   -4.423348    1.426553
 H   -0.027680   -5.523110    0.049972
 H    1.236242   -4.299103    0.130092
 H    3.813573    2.960707   -1.634834
 H    5.180191    2.786504   -0.503041
 H   -3.560488   -0.586638    4.089546
 H   -3.871508    1.707074    3.262368
 H   -3.750903    1.145483    1.586952
 H   -5.100687    0.619054    2.603108
 H   -2.502371    2.246059   -0.600096
 H   -0.645160    1.111902   -1.816805
 H    0.356533    2.543807   -1.595780
 H   -0.374242    4.372154   -0.022487
 H   -1.921476    4.260284    0.818765
 H   -1.879413    4.635320   -0.908976
 H   -2.305205    2.479568   -3.126652
 H   -1.262026    3.892213   -2.959601
 H   -0.702458    2.490351   -3.864532
