71 
6kjf_ligand_ani-2x.xyz
 O    2.959331    0.855476   -0.485427
 O    2.243739    2.147451   -2.174308
 O    1.724181   -0.007523   -4.222902
 O    3.104800   -3.484334   -2.253006
 O   -0.875852    0.711166    0.544792
 O    0.152561    2.510922   -0.331850
 C    2.935906    1.126368   -1.667791
 C    3.637610    0.299340   -2.723177
 C    2.673755   -0.688753   -3.416125
 C    1.828301   -1.509725   -2.443953
 C    2.597764   -2.405469   -1.483150
 C    1.689065   -2.884899   -0.341676
 C    1.475161   -1.777688    0.699530
 C    0.156601   -1.849365    1.477095
 C   -0.003190   -3.179661    2.246277
 C   -1.307856   -3.177586    2.990135
 C   -1.880251   -2.052464    3.428766
 C   -1.339036   -0.714786    3.175056
 C   -1.969016    0.381580    3.627441
 C   -1.525727    1.804571    3.417728
 C   -0.186449    1.870434    2.657136
 C    0.058007    0.730893    1.654069
 C   -0.042565   -0.625106    2.401053
 C    1.146009   -3.495222    3.220026
 C   -0.743381    1.681262   -0.374123
 C   -1.758094    1.635229   -1.514777
 C   -2.126394    3.081749   -1.913892
 C   -2.795600    3.912921   -0.821093
 C   -1.043810    0.970351   -2.713144
 C   -2.996644    0.815986   -1.140445
 C   -2.639603    2.641848    2.774058
 H    1.680935    2.507667   -1.452507
 H    2.158634    0.741919   -4.648765
 H    3.716160   -3.980609   -1.694949
 H    4.442737   -0.251859   -2.231757
 H    4.086165    0.954993   -3.477209
 H    3.279490   -1.365969   -4.036524
 H    1.157381   -2.138003   -3.037785
 H    1.192014   -0.812572   -1.885620
 H    3.427761   -1.833470   -1.034720
 H    0.732122   -3.210154   -0.773819
 H    2.127399   -3.776564    0.128817
 H    1.523689   -0.819188    0.179897
 H    2.330389   -1.760068    1.390584
 H   -0.664845   -1.800327    0.745663
 H   -0.040485   -3.995022    1.508125
 H   -1.752303   -4.144185    3.226681
 H   -2.796316   -2.095657    4.013100
 H   -2.900147    0.256392    4.180115
 H   -1.358917    2.240307    4.413879
 H   -0.077370    2.839087    2.161903
 H    0.638187    1.807135    3.381349
 H    1.066500    0.855706    1.249349
 H    0.786568   -0.606126    3.130935
 H    0.967414   -4.452905    3.721724
 H    1.228038   -2.726408    3.996829
 H    2.110948   -3.568072    2.707463
 H   -2.785353    3.029507   -2.791103
 H   -1.205253    3.579800   -2.238758
 H   -3.743159    3.467722   -0.497414
 H   -3.014706    4.922008   -1.184949
 H   -2.148042    4.012280    0.057249
 H   -0.121620    1.504360   -2.963666
 H   -0.786641   -0.071813   -2.491812
 H   -1.698676    0.972045   -3.590970
 H   -3.526157    1.236320   -0.279216
 H   -2.717446   -0.212597   -0.900718
 H   -3.693448    0.795654   -1.985771
 H   -2.856141    2.314976    1.751152
 H   -3.560363    2.559855    3.359035
 H   -2.354966    3.699373    2.737259
