21 
6knh_ligand_xtb.xyz
 C  -52.191806  -37.298875   24.773877
 O  -53.243730  -36.833367   25.140242
 O  -51.746101  -37.132129   23.542092
 C  -51.300615  -38.037918   25.759630
 C  -50.795450  -36.979654   26.763197
 O  -51.864406  -36.343528   27.438678
 C  -49.858266  -37.626889   27.802650
 C  -49.264390  -36.615769   28.786718
 O  -50.160855  -35.867074   29.435785
 O  -48.090917  -36.508069   28.977548
 C  -49.987618  -35.924256   25.955841
 O  -49.377688  -36.230735   24.968304
 O  -50.057637  -34.696276   26.427236
 H  -50.806658  -37.349723   23.434308
 H  -50.451275  -38.517061   25.275565
 H  -51.896203  -38.781198   26.292250
 H  -52.654453  -36.351530   26.861891
 H  -49.034622  -38.127608   27.294438
 H  -50.427650  -38.364015   28.375499
 H  -51.071375  -36.049194   29.141195
 H  -50.650781  -34.639332   27.199756
