67 
6kqi_ligand_xtb.xyz
 C    5.518151    3.704105    1.203957
 C    5.046553    2.496902    2.006243
 C    4.164423    1.541571    1.201088
 C    4.920685    0.812329    0.092011
 C    4.039124   -0.168635   -0.684697
 C    3.744014   -1.447398    0.098853
 C    2.658542   -2.335095   -0.544713
 C    2.342597   -3.502669    0.403921
 C    3.198292   -2.924288   -1.850972
 C    1.381794   -1.536832   -0.748803
 C    0.714131   -1.465663   -1.962806
 C   -0.466100   -0.752116   -2.076877
 C   -1.031839   -0.071638   -1.010454
 C   -2.335991    0.663537   -1.186217
 C   -2.127230    2.174108   -1.034867
 C   -3.430175    2.937675   -1.278885
 C   -4.508686    2.441724   -0.312093
 C   -4.711737    0.937839   -0.461528
 C   -3.409850    0.182051   -0.195139
 C   -3.606059   -1.335528   -0.290719
 C   -4.186373   -1.957700    0.980837
 C   -3.166795   -2.020136    2.120913
 C   -0.349366   -0.122150    0.209039
 C    0.822046   -0.853578    0.324605
 O   -3.241851    4.334204   -1.182958
 O   -2.008040   -2.752533    1.795686
 O   -0.834996    0.556227    1.291902
 H    6.068496    4.390397    1.843856
 H    4.667662    4.235684    0.782392
 H    6.173137    3.402605    0.390919
 H    5.914286    1.951786    2.385342
 H    4.477774    2.851557    2.869695
 H    3.739507    0.808628    1.890031
 H    3.334930    2.100151    0.760629
 H    5.769301    0.275240    0.523113
 H    5.315750    1.549121   -0.609144
 H    3.099509    0.324183   -0.944170
 H    4.545131   -0.428412   -1.616177
 H    3.431940   -1.183969    1.109153
 H    4.663209   -2.031025    0.191543
 H    1.583427   -4.146104   -0.035377
 H    1.967135   -3.144882    1.358764
 H    3.237281   -4.095134    0.584541
 H    2.502451   -3.651196   -2.263307
 H    3.376616   -2.149600   -2.591350
 H    4.139755   -3.434752   -1.657516
 H    1.094361   -1.969594   -2.835417
 H   -0.971722   -0.728435   -3.032034
 H   -2.697814    0.467307   -2.202343
 H   -1.769252    2.385862   -0.024811
 H   -1.368941    2.516085   -1.742893
 H   -3.763758    2.777377   -2.310325
 H   -5.441429    2.975008   -0.506982
 H   -4.197859    2.669015    0.712040
 H   -5.059243    0.719004   -1.474556
 H   -5.484936    0.605475    0.234140
 H   -3.066313    0.431408    0.809824
 H   -4.261478   -1.560827   -1.135436
 H   -2.640029   -1.807236   -0.483164
 H   -5.054299   -1.393011    1.323988
 H   -4.520324   -2.976041    0.758142
 H   -2.811206   -1.020058    2.373576
 H   -3.648407   -2.449877    3.013442
 H    1.300239   -0.883247    1.294382
 H   -2.918172    4.533314   -0.296691
 H   -2.275158   -3.613327    1.454724
 H   -0.295859    0.335282    2.060898
