67 
6kqi_ligand_aiqm1.xyz
 C    5.696593    3.705723    1.228112
 C    5.502929    2.394993    1.985318
 C    4.541980    1.424237    1.298410
 C    5.074435    0.870458   -0.021432
 C    4.088432   -0.045000   -0.748624
 C    3.824591   -1.358707   -0.016104
 C    2.783026   -2.286073   -0.679048
 C    2.586896   -3.514343    0.231280
 C    3.314827   -2.792022   -2.028101
 C    1.446379   -1.551926   -0.823156
 C    0.781769   -1.403848   -2.043659
 C   -0.432380   -0.719195   -2.107581
 C   -1.039019   -0.159386   -0.984995
 C   -2.358574    0.574333   -1.126309
 C   -2.185803    2.090385   -0.970561
 C   -3.489970    2.824899   -1.247563
 C   -4.601924    2.308196   -0.342064
 C   -4.765715    0.797765   -0.482354
 C   -3.450414    0.083598   -0.160576
 C   -3.592772   -1.439729   -0.193298
 C   -4.430069   -2.018548    0.952274
 C   -3.976492   -1.566008    2.334489
 C   -0.369323   -0.312297    0.234744
 C    0.837343   -0.997901    0.303656
 O   -3.339902    4.239271   -1.131194
 O   -2.562487   -1.687682    2.530373
 O   -0.866167    0.260523    1.387125
 H    6.352344    4.383068    1.777533
 H    4.740868    4.211545    1.079174
 H    6.140665    3.543915    0.244598
 H    6.471806    1.903341    2.123975
 H    5.124508    2.615831    2.986524
 H    4.326229    0.600131    1.984988
 H    3.587003    1.928872    1.115841
 H    6.010886    0.330425    0.165967
 H    5.331236    1.703127   -0.682776
 H    3.143908    0.490523   -0.890649
 H    4.473783   -0.258458   -1.750478
 H    3.496749   -1.145907    1.008013
 H    4.766634   -1.915997    0.078525
 H    1.882769   -4.220795   -0.215197
 H    2.205844   -3.228759    1.214802
 H    3.541883   -4.026719    0.378992
 H    2.637587   -3.530534   -2.465134
 H    3.450293   -1.989196   -2.755392
 H    4.282832   -3.276400   -1.879848
 H    1.195475   -1.812735   -2.954370
 H   -0.926802   -0.624665   -3.068788
 H   -2.721300    0.383908   -2.150066
 H   -1.866729    2.304287    0.055369
 H   -1.410032    2.467587   -1.643361
 H   -3.780102    2.663572   -2.289587
 H   -5.530109    2.833293   -0.577034
 H   -4.342149    2.549602    0.696731
 H   -5.066532    0.553747   -1.508934
 H   -5.564865    0.438841    0.174251
 H   -3.150596    0.390371    0.843431
 H   -4.022119   -1.742694   -1.153697
 H   -2.597462   -1.887984   -0.148525
 H   -5.483698   -1.745641    0.842323
 H   -4.387946   -3.112166    0.900977
 H   -4.186874   -0.510082    2.482425
 H   -4.510542   -2.125809    3.108992
 H    1.305233   -1.078985    1.281150
 H   -2.984195    4.418685   -0.257589
 H   -2.321233   -2.612821    2.443266
 H   -1.342475   -0.415965    1.895185
