35 
6m8c_ligand_aiqm1.xyz
 C    2.358374   31.051447   29.351136
 O    3.726727   30.840402   29.003651
 C    4.027217   29.538837   28.710904
 C    4.323514   29.182411   27.403908
 C    4.086740   28.568946   29.722779
 O    3.778784   28.955330   30.991703
 C    4.445077   27.260921   29.403585
 C    4.752018   26.911579   28.094589
 C    4.690358   27.868775   27.079000
 C    5.014462   27.478441   25.695996
 O    5.858617   26.398196   25.662191
 C    6.312177   25.891984   24.495152
 C    7.183883   24.817090   24.569758
 C    7.651800   24.285668   23.370354
 O    8.504054   23.235864   23.477952
 C    7.275243   24.790533   22.123446
 C    6.398707   25.866907   22.071972
 O    6.028776   26.356974   20.890154
 C    5.903426   26.434990   23.271445
 C    4.997662   27.540182   23.252071
 O    4.571164   28.077490   22.215491
 C    4.567844   28.040925   24.544384
 O    3.701609   29.082287   24.509044
 H    1.710209   30.770964   28.517411
 H    2.089412   30.476571   30.237655
 H    2.260026   32.114298   29.553521
 H    4.271797   29.951089   26.644952
 H    3.876453   28.200788   31.578003
 H    4.489534   26.509824   30.186146
 H    5.041480   25.896895   27.858603
 H    7.491352   24.409242   25.519478
 H    8.769460   22.948947   22.601748
 H    7.646214   24.367010   21.198719
 H    5.412172   27.099824   21.073722
 H    3.568455   29.251569   23.562777
