35 
6m8c_ligand_ani-2x.xyz
 C    2.391209   31.087142   29.299551
 O    3.754003   30.825758   28.994375
 C    4.032474   29.516902   28.709735
 C    4.310645   29.150821   27.404196
 C    4.084912   28.559365   29.734259
 O    3.793199   28.981101   30.993069
 C    4.435788   27.247948   29.430662
 C    4.733189   26.888114   28.125205
 C    4.669117   27.834162   27.091020
 C    5.006310   27.429818   25.717115
 O    5.803046   26.315865   25.664499
 C    6.289746   25.858962   24.479973
 C    7.171168   24.793873   24.549105
 C    7.678874   24.288194   23.354691
 O    8.542796   23.248898   23.448915
 C    7.311211   24.826352   22.120073
 C    6.419190   25.891961   22.071928
 O    6.081835   26.380558   20.879119
 C    5.891538   26.434967   23.269284
 C    4.961866   27.547703   23.267765
 O    4.525348   28.104417   22.243392
 C    4.541476   28.016486   24.580497
 O    3.665194   29.042697   24.593207
 H    1.747419   30.836737   28.445889
 H    2.064260   30.528906   30.182160
 H    2.322596   32.159206   29.498756
 H    4.261789   29.910490   26.634177
 H    3.878687   28.236074   31.600629
 H    4.480706   26.505283   30.227142
 H    5.019095   25.867124   27.894996
 H    7.454497   24.369145   25.503037
 H    8.823835   22.987670   22.563061
 H    7.703578   24.431351   21.187562
 H    5.444773   27.113710   21.023607
 H    3.489432   29.255438   23.660752
