35 
6m8c_ligand_xtb.xyz
 C    2.275745   31.038912   29.776995
 O    2.750666   30.530253   28.550128
 C    3.489680   29.390898   28.505998
 C    3.883679   29.018077   27.224613
 C    3.876769   28.587321   29.591291
 O    3.521153   28.899995   30.875363
 C    4.638846   27.450334   29.342242
 C    5.023454   27.090302   28.070515
 C    4.646213   27.879396   26.980807
 C    5.057163   27.492352   25.634557
 O    5.795286   26.350156   25.613456
 C    6.266477   25.832588   24.465421
 C    7.011193   24.662579   24.538410
 C    7.512189   24.102445   23.370511
 O    8.232237   22.964536   23.476798
 C    7.277683   24.697694   22.131291
 C    6.537227   25.864046   22.042392
 O    6.315160   26.429923   20.856945
 C    6.020581   26.445408   23.226846
 C    5.247680   27.652889   23.187727
 O    4.964561   28.286122   22.149626
 C    4.772784   28.151247   24.469419
 O    4.050033   29.290038   24.380934
 H    1.604664   30.335233   30.274043
 H    3.094443   31.294709   30.452914
 H    1.725352   31.942176   29.515853
 H    3.570022   29.655712   26.417516
 H    3.879976   28.231765   31.472059
 H    4.933582   26.835704   30.183523
 H    5.613581   26.202071   27.919378
 H    7.200540   24.191633   25.487074
 H    8.523989   22.674413   22.603144
 H    7.668336   24.260165   21.224669
 H    5.771709   27.245315   21.009542
 H    4.032147   29.496795   23.421398
