34 
6m8d_ligand_xtb.xyz
 C    3.198149   31.366616   30.466775
 O    3.818277   30.108523   30.359928
 C    4.045262   29.599192   29.127540
 C    4.664895   28.330693   29.088532
 C    4.933956   27.734773   27.874870
 O    4.972871   27.742534   30.272077
 C    3.725689   30.217831   27.926151
 C    3.996477   29.609007   26.713420
 C    4.599507   28.357505   26.666945
 C    4.900850   27.684498   25.403421
 O    5.813652   26.699095   25.531800
 C    6.187733   25.979321   24.446000
 C    7.128930   24.979678   24.640042
 C    7.542122   24.217693   23.553442
 O    8.460707   23.250636   23.774675
 C    7.021343   24.449626   22.284514
 C    6.078777   25.447785   22.080139
 O    5.589699   25.657057   20.860594
 C    5.649740   26.231656   23.177502
 C    4.661040   27.284125   23.001540
 O    4.152973   27.544159   21.902242
 C    4.323829   27.989556   24.213842
 H    3.800720   32.153042   30.001002
 H    2.198275   31.361447   30.021094
 H    3.115360   31.561799   31.534547
 H    5.404608   26.762180   27.855329
 H    5.393296   26.888654   30.111624
 H    3.261786   31.190848   27.925183
 H    3.751091   30.130910   25.803408
 H    7.539480   24.793771   25.617255
 H    8.665768   22.795758   22.948002
 H    7.340227   23.859368   21.438166
 H    4.934554   26.407377   20.932013
 H    3.578558   28.762588   24.142388
