34 
6m8d_ligand_dft.xyz
 C    6.557693   -0.563569    0.337884
 O    5.620427    0.439040    0.011655
 C    4.312342    0.111901    0.036437
 C    3.418687    1.150804   -0.304569
 C    2.056457    0.913825   -0.308589
 O    3.969714    2.349301   -0.618827
 C    3.799634   -1.137223    0.370777
 C    2.425277   -1.367467    0.363989
 C    1.541610   -0.351122    0.017087
 C    0.089501   -0.584973   -0.014868
 O   -0.613601    0.565683    0.108645
 C   -1.977008    0.554508    0.088236
 C   -2.608057    1.780900    0.205634
 C   -4.003059    1.793961    0.194151
 O   -4.597571    3.002990    0.310182
 C   -4.749000    0.619363    0.069587
 C   -4.094801   -0.602353   -0.046683
 O   -4.812061   -1.717858   -0.166502
 C   -2.677799   -0.651155   -0.037851
 C   -1.957911   -1.907924   -0.167659
 O   -2.541199   -2.999154   -0.285543
 C   -0.514924   -1.786602   -0.163754
 H    6.420481   -0.921753    1.366122
 H    6.494146   -1.412438   -0.354731
 H    7.538073   -0.095719    0.246678
 H    1.374515    1.716770   -0.573386
 H    3.262476    2.971117   -0.828293
 H    4.466167   -1.943973    0.651731
 H    2.053991   -2.343225    0.657823
 H   -2.043559    2.698687    0.307768
 H   -5.555920    2.890519    0.293382
 H   -5.834707    0.634674    0.060837
 H   -4.164153   -2.466669   -0.237977
 H    0.070976   -2.685259   -0.305676
