35 
6m8e_ligand_dft.xyz
 C    4.163269   -0.284096    0.000009
 C    3.431741    0.896177    0.000011
 C    2.015309    0.855776    0.000001
 C    1.378481   -0.395351    0.000017
 C    2.090575   -1.581575    0.000022
 C    3.486632   -1.512151    0.000005
 C   -2.566976   -1.093839   -0.000004
 C   -3.898293   -1.467260   -0.000013
 O   -4.231858   -2.781528   -0.000017
 C   -4.896285   -0.482452   -0.000013
 O   -6.178094   -0.956147   -0.000117
 C   -4.546779    0.858471    0.000056
 C   -3.207758    1.237354    0.000093
 C   -2.202615    0.263077    0.000044
 C   -0.777927    0.622264    0.000028
 O    0.030026   -0.478585   -0.000021
 O    4.115425   -2.703976    0.000037
 C    5.529113   -2.726276   -0.000012
 O    4.077939    2.064158   -0.000031
 C    1.218740    2.045491   -0.000014
 O    1.675440    3.210462   -0.000071
 C   -0.222719    1.864588    0.000001
 O   -0.931331    3.014921    0.000012
 H    5.242988   -0.214812   -0.000029
 H    1.587439   -2.539904    0.000031
 H   -1.817550   -1.874862    0.000003
 H   -5.197622   -2.840999   -0.000043
 H   -6.800727   -0.220272    0.000216
 H   -5.322921    1.620334    0.000081
 H   -2.952786    2.287435    0.000156
 H    5.936090   -2.242122   -0.895563
 H    5.936155   -2.242025    0.895460
 H    5.807989   -3.780103    0.000052
 H    3.398829    2.779245   -0.000059
 H   -0.245311    3.712455   -0.000021
