61 
6m8y_ligand_xtb.xyz
 C   -4.275314    0.022934   -0.035501
 O   -4.185884    0.349874   -1.201850
 C   -5.542934   -0.516485    0.589311
 N   -3.246123    0.136022    0.835097
 C   -1.912488    0.533015    0.420543
 C   -1.154402   -0.766724    0.135811
 O   -0.849654   -1.511354    1.066121
 C   -1.208372    1.332443    1.526869
 C   -2.026256    2.577377    1.887083
 C    0.198439    1.698177    1.061984
 C   -1.588178    3.217309    3.199156
 N   -0.904668   -1.092857   -1.134433
 C   -0.457289   -2.437351   -1.486248
 C    1.076375   -2.591386   -1.399961
 O    1.741249   -3.035159   -2.313311
 C   -0.953933   -2.621907   -2.915517
 C   -0.828097   -1.213132   -3.488999
 C   -1.235926   -0.315317   -2.321150
 N    1.567562   -2.201945   -0.213321
 C    2.967166   -2.284686    0.132998
 C    3.215317   -1.767168    1.535697
 O    4.216112   -1.985192    2.163342
 C    3.866964   -1.480164   -0.841950
 C    3.463459   -0.036378   -0.917589
 C    2.585460    0.394161   -1.903860
 C    3.953832    0.889876   -0.005238
 C    2.209473    1.723241   -1.982159
 C    3.577031    2.218794   -0.080374
 C    2.705410    2.639282   -1.070451
 O    2.222516   -1.005513    1.998044
 H   -6.346312   -0.480602   -0.140368
 H   -5.389527   -1.547764    0.900985
 H   -5.816811    0.074778    1.459869
 H   -3.312826   -0.291894    1.746081
 H   -2.027420    1.143767   -0.475503
 H   -1.131568    0.681249    2.404576
 H   -3.079682    2.300730    1.967074
 H   -1.939202    3.305745    1.078166
 H    0.723165    2.257519    1.830896
 H    0.155391    2.309701    0.163512
 H    0.778541    0.805547    0.843180
 H   -2.230326    4.062087    3.436851
 H   -1.651426    2.499493    4.014255
 H   -0.565097    3.578361    3.138518
 H   -0.892202   -3.152229   -0.777629
 H   -1.993034   -2.950457   -2.919651
 H   -0.338248   -3.343060   -3.448793
 H   -1.459140   -1.056378   -4.360598
 H    0.208592   -1.028697   -3.770191
 H   -0.684481    0.628113   -2.319454
 H   -2.310564   -0.106287   -2.344322
 H    0.913641   -1.936331    0.518597
 H    3.305657   -3.330247    0.094587
 H    4.896048   -1.574139   -0.491433
 H    3.776631   -1.946683   -1.822920
 H    2.213638   -0.318741   -2.624340
 H    4.647512    0.568939    0.759330
 H    1.537608    2.048883   -2.763922
 H    3.971312    2.930756    0.629942
 H    2.419707    3.678999   -1.134514
 H    2.423675   -0.680544    2.889676
