59 
6m9c_ligand_xtb.xyz
 C   -4.281673   -2.492134   -1.207446
 C   -5.519876   -1.833016   -0.578314
 C   -6.734827   -2.743082   -0.739730
 C   -5.282863   -1.521971    0.897282
 C   -3.121619   -1.518210   -1.244976
 O   -3.017910   -0.636434   -2.075713
 N   -2.219964   -1.676035   -0.252808
 C   -1.032404   -0.864951   -0.157919
 C   -0.014205   -1.638599    0.672937
 O   -0.279786   -2.704628    1.194032
 C   -1.332479    0.517317    0.475155
 C   -0.382205    1.579601    0.001351
 C    0.546350    2.161548    0.854411
 C   -0.435751    2.004271   -1.323775
 C    1.398200    3.152672    0.399163
 C    0.414000    2.987138   -1.786788
 C    1.333899    3.572799   -0.921872
 O    2.158870    4.543617   -1.411533
 C    2.392099   -0.805007    2.853592
 N    1.194388   -1.051041    0.749530
 O    1.739789    0.160422    3.142214
 C    2.257217   -1.591451    1.557832
 C    3.588784   -1.608418    0.779345
 C    3.947920   -0.228286    0.303438
 O    4.844644    3.629939   -0.935071
 C    4.542348    2.359289   -0.557813
 C    4.705695    0.626582    1.094525
 C    3.493676    0.232693   -0.925797
 C    5.002723    1.907286    0.675005
 C    3.787934    1.511262   -1.359009
 O    3.322329   -1.321791    3.657986
 H   -4.014039   -3.390399   -0.649434
 H   -4.514859   -2.768423   -2.236993
 H   -5.707137   -0.895166   -1.111818
 H   -7.618009   -2.276217   -0.309850
 H   -6.930937   -2.943356   -1.790402
 H   -6.567958   -3.691873   -0.233418
 H   -4.444879   -0.840855    1.022102
 H   -5.071705   -2.435718    1.449970
 H   -6.166225   -1.058238    1.330704
 H   -2.257272   -2.452715    0.394215
 H   -0.642547   -0.703681   -1.171769
 H   -1.310772    0.436976    1.563359
 H   -2.343080    0.791576    0.165025
 H    0.608746    1.844422    1.884284
 H   -1.163171    1.563712   -1.989821
 H    2.114703    3.601378    1.073969
 H    0.371858    3.325812   -2.809933
 H    2.709467    4.887098   -0.695264
 H    1.308438   -0.102288    0.417605
 H    1.969230   -2.616293    1.823946
 H    3.472608   -2.278717   -0.073232
 H    4.364224   -2.003457    1.435793
 H    4.433133    3.820387   -1.789518
 H    5.077362    0.282535    2.048592
 H    2.910586   -0.418511   -1.560628
 H    5.593536    2.572167    1.284927
 H    3.428144    1.855355   -2.318735
 H    3.375154   -0.817188    4.485790
