59 
6m9c_ligand_dft.xyz
 C    5.522101    0.278329   -0.802975
 C    6.530894   -0.709489   -0.203619
 C    7.961653   -0.267670   -0.514174
 C    6.318320   -0.869426    1.303554
 C    4.090575   -0.214681   -0.671343
 O    3.778317   -1.382852   -0.879825
 N    3.175257    0.717958   -0.309886
 C    1.775439    0.388772   -0.236161
 C    0.996188    1.699605   -0.325617
 O    1.550709    2.788212   -0.260741
 C    1.428812   -0.391407    1.062905
 C    0.214459   -1.277395    0.926293
 C   -0.985088   -0.993913    1.579721
 C    0.277805   -2.419492    0.117845
 C   -2.091661   -1.825340    1.437841
 C   -0.819763   -3.254750   -0.033553
 C   -2.010388   -2.955628    0.629091
 O   -3.072222   -3.792014    0.436232
 C   -1.646507    2.905174    1.068376
 N   -0.345006    1.557195   -0.493756
 O   -1.253192    2.278073    2.019891
 C   -1.231159    2.685381   -0.384682
 C   -2.437800    2.543747   -1.335969
 C   -3.222626    1.271432   -1.119203
 O   -5.306768   -2.264931   -0.391369
 C   -4.617882   -1.119364   -0.670541
 C   -4.258831    1.207370   -0.182587
 C   -2.907440    0.111094   -1.828966
 C   -4.956563    0.028395    0.043216
 C   -3.594226   -1.077235   -1.613717
 O   -2.509780    3.931998    1.183290
 H    5.638845    1.266040   -0.337622
 H    5.722687    0.403468   -1.875019
 H    6.346266   -1.679309   -0.679616
 H    8.687152   -0.991036   -0.126418
 H    8.126429   -0.170109   -1.593160
 H    8.179834    0.703457   -0.051838
 H    5.313480   -1.243747    1.524220
 H    6.450353    0.089757    1.820601
 H    7.038794   -1.578814    1.724935
 H    3.405349    1.699296   -0.221372
 H    1.520168   -0.246707   -1.092612
 H    1.304152    0.316276    1.889451
 H    2.300880   -1.012202    1.286054
 H   -1.062541   -0.101692    2.193894
 H    1.211317   -2.650513   -0.391314
 H   -3.023492   -1.580295    1.941804
 H   -0.770418   -4.142079   -0.656513
 H   -3.837700   -3.427278    0.902141
 H   -0.747921    0.637888   -0.350474
 H   -0.658001    3.573288   -0.671233
 H   -2.043459    2.569366   -2.356448
 H   -3.080325    3.419554   -1.210932
 H   -4.941193   -2.980033   -0.930106
 H   -4.528293    2.100408    0.375614
 H   -2.107925    0.133384   -2.565165
 H   -5.761547   -0.018570    0.769309
 H   -3.315325   -1.975669   -2.158298
 H   -2.693711    4.030844    2.131378
