59 
6m9c_ligand_aiqm1.xyz
 C   -4.342911   -2.510498   -0.629060
 C   -5.706566   -1.887963   -0.918870
 C   -6.753102   -2.981470   -1.107409
 C   -6.122953   -0.932695    0.197746
 C   -3.214451   -1.500771   -0.668257
 O   -3.213805   -0.524084   -1.406595
 N   -2.183894   -1.745761    0.174728
 C   -1.008842   -0.917329    0.150294
 C    0.131682   -1.714488    0.773538
 O   -0.051659   -2.787290    1.326173
 C   -1.240295    0.436589    0.873061
 C   -0.388031    1.527951    0.288011
 C    0.667003    2.106635    0.991438
 C   -0.626702    1.949029   -1.026202
 C    1.492764    3.053697    0.390179
 C    0.187055    2.897513   -1.632355
 C    1.258976    3.440670   -0.925790
 O    2.049422    4.342370   -1.580418
 C    2.598437   -1.006112    2.742692
 N    1.357078   -1.141425    0.645453
 O    1.884324   -0.141119    3.173026
 C    2.487588   -1.662556    1.371136
 C    3.795844   -1.540988    0.570305
 C    4.118683   -0.123210    0.181655
 O    4.782586    3.886140   -0.759347
 C    4.601646    2.545170   -0.506045
 C    4.696092    0.761645    1.096735
 C    3.804046    0.355133   -1.090483
 C    4.944190    2.087705    0.762359
 C    4.036855    1.683441   -1.440031
 O    3.613485   -1.537286    3.453681
 H   -4.355608   -3.014225    0.343758
 H   -4.116107   -3.272121   -1.384257
 H   -5.614017   -1.318022   -1.845957
 H   -7.729092   -2.551249   -1.333946
 H   -6.483663   -3.657300   -1.921586
 H   -6.852112   -3.574672   -0.193479
 H   -5.406176   -0.117984    0.308747
 H   -6.188329   -1.468120    1.150255
 H   -7.102362   -0.499059   -0.011967
 H   -2.125566   -2.597392    0.710049
 H   -0.749131   -0.703349   -0.888555
 H   -1.071269    0.318636    1.948128
 H   -2.292536    0.681865    0.722985
 H    0.865766    1.790502    2.010329
 H   -1.457544    1.516693   -1.575348
 H    2.333151    3.470388    0.936097
 H    0.002055    3.221758   -2.647985
 H    2.819797    4.535955   -1.033186
 H    1.378103   -0.170375    0.361241
 H    2.292196   -2.718469    1.557544
 H    3.679013   -2.148932   -0.327654
 H    4.598696   -1.970550    1.169399
 H    4.875706    4.025864   -1.704965
 H    4.960775    0.405675    2.085164
 H    3.362609   -0.311229   -1.822932
 H    5.378578    2.772484    1.479869
 H    3.750128    2.051560   -2.418192
 H    3.592296   -1.117279    4.323791
