65 
6m9d_ligand_dft.xyz
 N   -4.017626   -1.053782    1.439837
 C   -3.831427    0.321952    1.689662
 C   -4.781399   -1.464622    0.243854
 N   -4.078781    0.784621    2.843503
 C   -3.323911    0.369988   -0.727463
 C   -4.636416   -0.413080   -0.858320
 N   -3.243748    0.990688    0.600319
 N   -1.571797   -1.267195    0.119516
 C   -2.047108   -0.447966   -1.051510
 C   -0.847155    0.415343   -1.476716
 O   -0.226692    0.172794   -2.491459
 N   -0.510331    1.388565   -0.578041
 C    0.899813    1.657980   -0.353062
 C    1.437266    0.516296    0.528019
 O    0.669182   -0.152597    1.235401
 C    1.111441    3.021038    0.314415
 C    0.485061    4.198228   -0.447719
 C    0.961644    4.266244   -1.900494
 C    0.781586    5.504191    0.293160
 N    2.752515    0.300342    0.496611
 C    3.408446   -0.783699    1.218066
 C    4.757854   -0.262190    1.701566
 O    5.428089    0.237348    0.559223
 C    3.569485   -2.031526    0.325891
 C    2.275125   -2.607104   -0.200020
 C    1.553377   -3.542660    0.548773
 C    1.783096   -2.235426   -1.453298
 C    0.395851   -4.125569    0.041897
 C    0.624702   -2.812314   -1.969948
 C   -0.067464   -3.771082   -1.229270
 H   -4.354413   -1.484607    2.295352
 H   -4.387236   -2.432355   -0.086661
 H   -5.838411   -1.610081    0.486989
 H   -3.792798    1.756393    2.950228
 H   -3.341838    1.178814   -1.463241
 H   -5.447648    0.317796   -0.782669
 H   -4.716985   -0.879940   -1.843939
 H   -3.441196    1.983129    0.602640
 H   -2.358074   -1.447616    0.789483
 H   -0.801642   -0.776131    0.643853
 H   -1.152629   -2.152960   -0.202671
 H   -2.249266   -1.132637   -1.876777
 H   -1.076568    1.415829    0.264993
 H    1.395507    1.627746   -1.325692
 H    2.191625    3.186315    0.419493
 H    0.704950    2.982965    1.334650
 H   -0.603160    4.048368   -0.456753
 H    2.055543    4.337340   -1.951809
 H    0.551546    5.151715   -2.395735
 H    0.646438    3.392209   -2.480664
 H    0.288296    6.350391   -0.194935
 H    0.435314    5.465498    1.332013
 H    1.858775    5.709090    0.305373
 H    3.351010    0.856390   -0.101823
 H    2.781436   -1.023310    2.080793
 H    5.315865   -1.079711    2.177535
 H    4.596511    0.528983    2.446958
 H    6.283877    0.593596    0.822518
 H    4.230543   -1.772033   -0.507291
 H    4.090697   -2.792831    0.917767
 H    1.919404   -3.841323    1.527806
 H    2.322373   -1.504364   -2.049023
 H   -0.128044   -4.879122    0.622888
 H    0.274310   -2.515993   -2.953053
 H   -0.939570   -4.264708   -1.651015
