78 
6m9f_ligand_xtb.xyz
 C    3.818319   -1.761170    0.849290
 C    4.842730   -2.751276    0.270903
 C    4.252987   -3.512493   -0.913204
 C    5.297305   -3.723665    1.355807
 C    3.497881   -0.676604   -0.151063
 O    4.241449    0.271159   -0.368626
 N    2.342419   -0.848630   -0.820471
 C    1.859519    0.087543   -1.818064
 C    1.095606    1.200873   -1.081848
 O   -0.099706    1.407267   -1.233232
 C    0.997765   -0.636727   -2.870443
 C   -0.038440   -1.520670   -2.233691
 C   -1.331182   -1.067481   -2.014156
 C    0.301703   -2.796455   -1.792890
 C   -2.235174   -1.828598   -1.299219
 C   -0.589366   -3.561687   -1.066431
 C   -1.851590   -3.057224   -0.782677
 O   -2.674847   -3.777661    0.046184
 N    1.886653    1.873898   -0.235430
 C    1.448470    2.755370    0.837898
 C    0.780106    1.916879    1.942623
 O    1.221903    1.866080    3.071728
 C    0.521651    3.888707    0.377589
 C    1.227415    5.060867   -0.321423
 C    1.973966    4.617250   -1.577010
 C    2.162643    5.816942    0.620128
 C   -0.816732   -1.090433    1.796850
 N   -0.331885    1.263578    1.550297
 O    0.082301   -1.384876    1.049022
 C   -0.976027    0.296212    2.404248
 C   -2.437276    0.666750    2.721932
 C   -3.348730    0.590416    1.529014
 O   -5.906591    0.332911   -1.736508
 C   -5.060745    0.447812   -0.676895
 C   -4.281008   -0.434399    1.416419
 C   -3.296175    1.549358    0.525191
 C   -5.133199   -0.509051    0.331527
 C   -4.134460    1.478033   -0.571258
 O   -1.745310   -1.950213    2.191057
 H    4.248839   -1.281737    1.730025
 H    2.908119   -2.286929    1.139594
 H    5.707907   -2.175748   -0.074491
 H    4.981451   -4.216140   -1.310115
 H    3.971276   -2.827597   -1.709380
 H    3.371617   -4.070716   -0.602480
 H    6.033415   -4.418405    0.957975
 H    4.451102   -4.296585    1.729717
 H    5.746402   -3.189624    2.189632
 H    1.646771   -1.485961   -0.455425
 H    2.738978    0.531897   -2.301265
 H    1.659348   -1.234312   -3.500580
 H    0.515229    0.123450   -3.485192
 H   -1.626253   -0.094428   -2.371265
 H    1.281690   -3.195488   -2.011492
 H   -3.231860   -1.455933   -1.111397
 H   -0.315807   -4.536292   -0.693190
 H   -3.541186   -3.352757    0.079440
 H    2.864695    1.596942   -0.212268
 H    2.349816    3.179124    1.286834
 H    0.005950    4.273476    1.261010
 H   -0.224345    3.474795   -0.300314
 H    0.432846    5.752644   -0.627508
 H    1.323026    4.032066   -2.222433
 H    2.839889    4.012913   -1.320177
 H    2.318938    5.486146   -2.133403
 H    3.026846    5.213777    0.886187
 H    2.524173    6.722260    0.137906
 H    1.644331    6.098728    1.533795
 H   -0.599170    1.279249    0.570994
 H   -0.403853    0.301796    3.345401
 H   -2.431064    1.684104    3.118647
 H   -2.796138   -0.007142    3.499885
 H   -5.755664    1.057431   -2.355263
 H   -4.343610   -1.182876    2.192498
 H   -2.602437    2.372075    0.602342
 H   -5.867316   -1.295905    0.246790
 H   -4.075099    2.229196   -1.347310
 H   -1.658548   -2.811073    1.738661
