62 
6m9t_ligand_dft.xyz
 C    6.166812    0.435075    1.188158
 C    6.239762   -0.370572   -0.109788
 C    4.898043   -0.510261   -0.838036
 C    3.866428   -1.348052   -0.082289
 C    2.445161   -1.311621   -0.682317
 C    2.419698   -1.803772   -2.126956
 C    1.521393   -2.171606    0.221307
 C    0.084973   -2.213442   -0.210142
 C   -0.884542   -1.507019    0.370929
 C   -2.323564   -1.481433   -0.033227
 C   -3.278467   -1.917046    1.097684
 C   -4.643496   -1.424182    0.635167
 C   -4.339997   -0.157627   -0.159488
 C   -2.835285   -0.083613   -0.423793
 C   -2.459899    0.362128   -1.840157
 C   -2.551320    1.873438   -2.085240
 C   -1.676047    2.721085   -1.152016
 C   -0.216946    2.265548   -1.118987
 C    0.712617    3.127595   -0.262004
 C    0.296812    3.217702    1.213317
 C    0.220780    1.867169    1.875805
 O   -5.159608    0.647202   -0.535141
 O    1.072123    1.001402    1.822903
 O   -0.910162    1.690448    2.577355
 O   -3.289219   -3.304996    1.323049
 O    1.975694    0.025428   -0.729430
 H    5.549963   -0.061745    1.944313
 H    5.734532    1.426248    1.007219
 H    7.163040    0.576398    1.620231
 H    6.953333    0.114908   -0.787141
 H    6.648714   -1.368437    0.099956
 H    4.472512    0.483870   -1.022227
 H    5.081624   -0.960052   -1.821363
 H    3.786218   -0.986615    0.952293
 H    4.209695   -2.390261   -0.019394
 H    2.790090   -2.832197   -2.199213
 H    1.401257   -1.763754   -2.523852
 H    3.041883   -1.163071   -2.757090
 H    1.581160   -1.764003    1.238886
 H    1.929964   -3.189902    0.260068
 H   -0.163284   -2.841388   -1.066579
 H   -0.620634   -0.867941    1.216296
 H   -2.487723   -2.171423   -0.874100
 H   -2.991122   -1.378332    2.019590
 H   -5.372724   -1.245984    1.428429
 H   -5.071278   -2.165117   -0.053852
 H   -2.437079    0.635246    0.310643
 H   -3.112165   -0.155624   -2.554454
 H   -1.440574    0.011584   -2.043469
 H   -3.595339    2.187088   -1.986771
 H   -2.253791    2.065823   -3.124304
 H   -1.730357    3.770094   -1.473275
 H   -2.102183    2.699665   -0.139900
 H    0.181344    2.242710   -2.141113
 H   -0.146556    1.229627   -0.768557
 H    0.755598    4.149525   -0.657653
 H    1.725797    2.716765   -0.323752
 H    1.043941    3.795520    1.771198
 H   -0.662119    3.726510    1.333206
 H   -0.849387    0.814081    2.992511
 H   -2.368288   -3.581021    1.425399
 H    1.865814    0.348371    0.180360
