54 
6mck_ligand_ani-2x.xyz
 C   66.776703   27.653459   64.427850
 C   66.082206   28.858169   64.367641
 O   68.098353   27.386535   54.521029
 C   67.931823   28.414895   55.152236
 C   68.083735   28.500444   56.640695
 C   67.320758   29.385742   57.388904
 C   67.448867   29.461271   58.781731
 C   68.349327   28.663349   59.464405
 C   69.122741   27.770533   58.713051
 C   68.976757   27.648884   57.315791
 C   69.847976   26.598007   56.899720
 C   70.500284   26.099309   57.984850
 C   71.518086   25.001066   57.967569
 N   70.079723   26.813038   59.118397
 C   70.524962   26.622312   60.431739
 N   70.555302   27.696876   61.216805
 C   70.953967   27.530832   62.480968
 N   71.024598   28.692018   63.219901
 C   70.402756   28.845442   64.539675
 C   68.881409   28.850689   64.517347
 C   68.174701   30.052682   64.453395
 C   66.784768   30.058019   64.380116
 C   68.165814   27.651429   64.501568
 C   71.336417   26.270153   62.967231
 C   71.867676   26.032708   64.358769
 O   72.598881   24.832636   64.456666
 C   71.834422   23.749415   63.975818
 C   71.699504   23.839364   62.461923
 C   71.273254   25.225719   62.056686
 N   70.892145   25.394876   60.783061
 N   67.554019   29.586493   54.542977
 H   66.235136   26.710795   64.419384
 H   64.996264   28.860785   64.310709
 H   66.590497   30.014368   56.886593
 H   66.833652   30.168662   59.331643
 H   68.453237   28.722599   60.541355
 H   69.950965   26.253109   55.879284
 H   71.179669   24.137473   58.546633
 H   71.692136   24.693780   56.932742
 H   72.469252   25.325908   58.400529
 H   70.811784   29.471330   62.606396
 H   70.777847   29.788648   64.946917
 H   70.763000   28.053327   65.197854
 H   68.716241   30.996934   64.467753
 H   66.249957   31.003835   64.334202
 H   68.696860   26.700203   64.546439
 H   71.035178   25.990946   65.081207
 H   72.544498   26.838522   64.665509
 H   70.836125   23.755359   64.444392
 H   72.351367   22.832488   64.274543
 H   70.980456   23.105232   62.086188
 H   72.667285   23.621235   61.992148
 H   67.590164   29.569042   53.533998
 H   67.765096   30.467859   54.984967
