54 
6mck_ligand_dft.xyz
 C    0.891570    2.798629    1.988802
 C    0.050532    3.806574    1.524435
 O   -5.817140   -1.664462    0.618517
 C   -5.608657   -0.565610    0.129319
 C   -4.240012    0.019602   -0.013744
 C   -4.022682    1.394343   -0.056458
 C   -2.732421    1.920524   -0.183400
 C   -1.622958    1.095093   -0.293566
 C   -1.837692   -0.282028   -0.255832
 C   -3.125329   -0.835181   -0.089062
 C   -2.968757   -2.259426   -0.031602
 C   -1.643567   -2.544082   -0.137635
 C   -1.001717   -3.891702   -0.165186
 N   -0.929364   -1.345919   -0.286325
 C    0.460563   -1.203198   -0.349852
 N    0.907682   -0.181575   -1.076174
 C    2.220301    0.046053   -1.055363
 N    2.666673    1.148875   -1.787162
 C    3.194356    2.281956   -1.001871
 C    2.147178    2.873351   -0.081891
 C    1.300660    3.886036   -0.536082
 C    0.260021    4.353864    0.261717
 C    1.934399    2.338941    1.191410
 C    3.106724   -0.800777   -0.373934
 C    4.608541   -0.646641   -0.411182
 O    5.275864   -1.843983   -0.096671
 C    4.821195   -2.376074    1.130807
 C    3.389154   -2.884659    0.992992
 C    2.522089   -1.870339    0.295580
 N    1.198721   -2.063283    0.342415
 N   -6.642543    0.229131   -0.307753
 H    0.730835    2.365828    2.971285
 H   -0.767688    4.160545    2.143740
 H   -4.861810    2.075562    0.052745
 H   -2.589223    2.996732   -0.193194
 H   -0.630051    1.510095   -0.406700
 H   -3.763893   -2.979081    0.085722
 H   -0.385811   -4.064792    0.720001
 H   -1.786956   -4.650233   -0.213405
 H   -0.351633   -4.009905   -1.038724
 H    1.879567    1.474034   -2.343259
 H    3.550342    3.028039   -1.718151
 H    4.064896    1.945328   -0.433604
 H    1.455556    4.311638   -1.525383
 H   -0.388468    5.144479   -0.104275
 H    2.583351    1.545719    1.555683
 H    4.933110    0.144777    0.288493
 H    4.927349   -0.350993   -1.415384
 H    4.881289   -1.608448    1.920549
 H    5.504780   -3.186295    1.393458
 H    2.953632   -3.124636    1.968339
 H    3.376403   -3.806798    0.399639
 H   -7.545027   -0.223008   -0.333336
 H   -6.469478    0.926878   -1.014426
