35 
6me5_ligand_ani-2x.xyz
 N   24.517588  -20.159768   46.921968
 C   24.241578  -22.586743   46.591586
 C   24.167044  -23.942442   47.247907
 C   22.944255  -24.532741   47.452455
 C   22.815964  -25.777403   48.112891
 C   23.931721  -26.425360   48.566066
 C   25.350688  -24.607463   47.710267
 C   27.627278  -25.982264   48.652242
 C   29.242019  -23.080630   47.178797
 C   24.097395  -17.799565   46.554067
 C   23.799828  -19.070349   47.326958
 O   22.970001  -19.124263   48.219436
 C   24.431101  -21.438891   47.593311
 C   25.217369  -25.856507   48.373791
 C   26.659447  -24.063526   47.529780
 C   27.767434  -24.739096   47.986069
 C   26.388720  -26.516662   48.836280
 O   29.047824  -24.303639   47.852325
 H   25.226958  -20.036458   46.215889
 H   23.315955  -22.397875   46.035016
 H   25.054352  -22.562298   45.853813
 H   22.043954  -24.034866   47.096339
 H   21.828370  -26.209081   48.253714
 H   23.852200  -27.382973   49.076944
 H   28.528208  -26.479110   48.999534
 H   28.866615  -23.128049   46.148307
 H   28.746079  -22.253256   47.702943
 H   30.319037  -22.907070   47.164602
 H   23.565517  -17.810998   45.596006
 H   23.741468  -16.947965   47.134427
 H   25.166315  -17.679391   46.346807
 H   23.575462  -21.373552   48.268617
 H   25.319556  -21.609192   48.219094
 H   26.763129  -23.105959   47.029313
 H   26.276666  -27.471596   49.345938
