35 
6me5_ligand_xtb.xyz
 N   24.603270  -20.073827   47.152421
 C   24.342351  -22.481074   46.657974
 C   24.234862  -23.838780   47.295211
 C   22.988162  -24.369502   47.518199
 C   22.817231  -25.614487   48.134337
 C   23.909094  -26.332464   48.532956
 C   25.385299  -24.562907   47.707609
 C   27.602153  -26.064701   48.555759
 C   29.369802  -23.189594   47.197109
 C   23.858701  -17.901412   46.450603
 C   23.577592  -19.187915   47.201739
 O   22.549760  -19.404279   47.803356
 C   24.523584  -21.394354   47.729872
 C   25.207437  -25.827138   48.330946
 C   26.700983  -24.080089   47.523572
 C   27.787952  -24.808643   47.936134
 C   26.346759  -26.553858   48.742932
 O   29.090195  -24.425525   47.803179
 H   25.404259  -19.863472   46.578336
 H   23.425385  -22.265386   46.106598
 H   25.173593  -22.444738   45.950122
 H   22.114063  -23.813348   47.211193
 H   21.819624  -25.997363   48.289710
 H   23.795104  -27.295034   49.010307
 H   28.479944  -26.608917   48.866249
 H   29.006610  -23.156190   46.164218
 H   28.937081  -22.357046   47.762514
 H   30.454816  -23.097658   47.198478
 H   23.988110  -18.109145   45.390323
 H   23.021749  -17.222191   46.580665
 H   24.764242  -17.433702   46.830449
 H   23.658363  -21.392430   48.396145
 H   25.423633  -21.591093   48.320563
 H   26.843165  -23.123975   47.048601
 H   26.202172  -27.514761   49.215121
