34 
6mg5_ligand_aiqm1.xyz
 O   -5.935276  -20.385731   37.258040
 C   -4.914553  -20.153106   36.664893
 O   -3.865342  -21.039689   36.817994
 C   -2.669676  -20.857111   36.184237
 C   -4.690350  -19.008948   35.793498
 C   -3.516833  -18.807467   35.152516
 C   -3.305793  -17.622905   34.256942
 C   -2.447591  -19.762390   35.342590
 C   -1.188212  -19.678405   34.732439
 C   -0.206446  -20.624301   34.956765
 C   -0.437558  -21.723965   35.827328
 C   -1.702420  -21.819734   36.424628
 N    0.546461  -22.642847   36.095428
 C    1.796758  -22.634959   35.353286
 C    1.690942  -23.163444   33.922655
 C    0.303424  -23.745948   37.013194
 C   -0.437087  -24.933650   36.402508
 H   -5.527146  -18.331873   35.694031
 H   -3.072431  -17.937654   33.238999
 H   -4.201658  -17.003180   34.227278
 H   -2.475023  -17.009315   34.607439
 H   -0.974237  -18.851916   34.066306
 H    0.742907  -20.522308   34.457429
 H   -1.963597  -22.638341   37.074377
 H    2.502173  -23.249352   35.915256
 H    2.204945  -21.620020   35.354400
 H    1.358549  -24.201182   33.909948
 H    0.979128  -22.578703   33.339094
 H    2.663566  -23.105901   33.429998
 H   -0.236757  -23.363548   37.881502
 H    1.277019  -24.077752   37.382177
 H   -1.421264  -24.643639   36.035738
 H    0.122358  -25.356031   35.566388
 H   -0.574278  -25.713386   37.154201
