34 
6mg5_ligand_ani-2x.xyz
 O   -5.975911  -20.447604   37.186409
 C   -4.950398  -20.201133   36.607575
 O   -3.886115  -21.059303   36.784636
 C   -2.685543  -20.866202   36.174226
 C   -4.723604  -19.057899   35.719404
 C   -3.551221  -18.839225   35.101738
 C   -3.347073  -17.654296   34.193276
 C   -2.458848  -19.780022   35.325670
 C   -1.183973  -19.681714   34.750963
 C   -0.196337  -20.608574   35.008706
 C   -0.428999  -21.705197   35.875490
 C   -1.705019  -21.809239   36.445520
 N    0.572136  -22.612146   36.179143
 C    1.832723  -22.591838   35.453215
 C    1.779492  -23.105859   34.010677
 C    0.288610  -23.766511   37.016504
 C   -0.461657  -24.911637   36.330756
 H   -5.573229  -18.394064   35.592793
 H   -4.257424  -17.052471   34.133306
 H   -2.538622  -17.016625   34.562318
 H   -3.084802  -17.980320   33.182674
 H   -0.966827  -18.851800   34.084847
 H    0.764995  -20.484239   34.525355
 H   -1.977464  -22.630440   37.097415
 H    2.537938  -23.204574   36.025551
 H    2.237402  -21.572096   35.475019
 H    1.457831  -24.152515   33.973603
 H    1.089655  -22.520891   33.393115
 H    2.774554  -23.045176   33.555674
 H   -0.257420  -23.430260   37.905679
 H    1.251795  -24.139720   37.383335
 H   -1.429385  -24.588226   35.932581
 H    0.121333  -25.325346   35.500230
 H   -0.643891  -25.721538   37.046096
