42 
6mnc_ligand_xtb.xyz
 C    0.553509    0.277446   -0.656947
 C   -1.584226   -0.183810   -1.984272
 C   -2.373496   -0.117102   -0.681647
 C   -2.615569   -1.528950   -0.122441
 O   -4.543555    0.418591   -1.658867
 O    5.920225   -1.249367    0.433088
 C   -3.763523    0.494333   -0.748458
 C   -4.004253    1.214767    0.569685
 C   -2.700337    1.103955    1.370435
 C   -1.660810    0.845862    0.278232
 C   -0.273149    0.336158    0.640203
 C   -0.134727   -0.602923   -1.713217
 C    0.454169    1.221503    1.645778
 C    1.733390    0.518481    2.079258
 C    2.524472   -0.013475    0.914611
 C    1.978600   -0.148354   -0.364263
 C    3.838209   -0.390657    1.151748
 C    4.638491   -0.893798    0.137464
 C    4.109174   -1.007105   -1.140083
 C    2.800235   -0.633456   -1.375575
 H    0.596875    1.299358   -1.062208
 H   -1.593901    0.801474   -2.457002
 H   -2.048138   -0.886782   -2.677848
 H   -3.168428   -1.498599    0.812307
 H   -3.203114   -2.093769   -0.843883
 H   -1.682537   -2.057166    0.045861
 H    6.357760   -1.572146   -0.363655
 H   -4.868850    0.787501    1.078060
 H   -4.247534    2.254485    0.343482
 H   -2.493399    2.015149    1.929683
 H   -2.736571    0.275176    2.077631
 H   -1.528962    1.793109   -0.262534
 H   -0.348577   -0.667379    1.068303
 H   -0.097277   -1.644431   -1.390154
 H    0.405428   -0.535303   -2.657547
 H   -0.174558    1.409457    2.517519
 H    0.691088    2.183347    1.185888
 H    2.361283    1.196558    2.661498
 H    1.477607   -0.322492    2.732733
 H    4.260840   -0.292801    2.139971
 H    4.720243   -1.383676   -1.949996
 H    2.423993   -0.722871   -2.382142
