42 
6mnc_ligand_dft.xyz
 C    0.274651   -0.431881   -0.567275
 C   -1.888000   -1.818195   -0.393031
 C   -2.572423   -0.610892    0.239403
 C   -2.551474   -0.710697    1.781800
 O   -4.857794   -1.244979   -0.352479
 O    5.894352   -0.091508    0.359194
 C   -4.037318   -0.389038   -0.121672
 C   -4.296694    1.125533   -0.143110
 C   -2.923657    1.790244    0.085375
 C   -1.938867    0.680373   -0.311808
 C   -0.461225    0.787831    0.035323
 C   -0.369600   -1.769623   -0.148431
 C    0.196907    2.068339   -0.471531
 C    1.622925    2.171346    0.062095
 C    2.402665    0.874583   -0.033699
 C    1.774055   -0.357304   -0.291137
 C    3.778906    0.926997    0.177931
 C    4.556898   -0.224401    0.141109
 C    3.948513   -1.450705   -0.113984
 C    2.576686   -1.500256   -0.327150
 H    0.137801   -0.349537   -1.659244
 H   -2.084113   -1.814026   -1.473324
 H   -2.306094   -2.752373   -0.002513
 H   -3.027546    0.149308    2.264171
 H   -3.098400   -1.608317    2.088183
 H   -1.533987   -0.785143    2.173558
 H    6.308833   -0.960586    0.303304
 H   -5.055371    1.388377    0.600330
 H   -4.716015    1.378029   -1.123462
 H   -2.796801    2.695682   -0.514099
 H   -2.787518    2.075696    1.134766
 H   -1.998164    0.599208   -1.411814
 H   -0.346097    0.763444    1.129709
 H   -0.147015   -1.960927    0.908970
 H    0.085538   -2.592667   -0.708477
 H   -0.374355    2.950479   -0.160306
 H    0.199119    2.061086   -1.570514
 H    2.170115    2.966939   -0.456736
 H    1.584577    2.469719    1.119339
 H    4.266661    1.877303    0.377443
 H    4.538190   -2.364556   -0.147678
 H    2.130490   -2.468767   -0.526566
