42 
6mnc_ligand_aiqm1.xyz
 C    0.542047    0.263478   -0.638404
 C   -1.594423   -0.138317   -1.995622
 C   -2.374861   -0.121592   -0.682977
 C   -2.588735   -1.559541   -0.159600
 O   -4.531075    0.447088   -1.680783
 O    5.949136   -1.212025    0.431413
 C   -3.765627    0.500614   -0.750863
 C   -4.028350    1.230957    0.569202
 C   -2.725161    1.094002    1.385168
 C   -1.673853    0.823043    0.300747
 C   -0.283436    0.326109    0.662054
 C   -0.140708   -0.563097   -1.740074
 C    0.444572    1.215159    1.662486
 C    1.757112    0.565304    2.081007
 C    2.548944    0.015839    0.916260
 C    1.974320   -0.172006   -0.356789
 C    3.877298   -0.341725    1.146530
 C    4.653310   -0.887360    0.132355
 C    4.102939   -1.084267   -1.126050
 C    2.777940   -0.727321   -1.356259
 H    0.591585    1.300934   -1.004461
 H   -1.611123    0.864032   -2.438166
 H   -2.074576   -0.808658   -2.711599
 H   -3.053622   -1.576185    0.829588
 H   -3.245729   -2.094554   -0.852086
 H   -1.656074   -2.120051   -0.098525
 H    6.363102   -1.573573   -0.354939
 H   -4.904774    0.810640    1.063853
 H   -4.257046    2.274179    0.342018
 H   -2.511633    1.990485    1.966786
 H   -2.783324    0.255708    2.083271
 H   -1.529184    1.773780   -0.245579
 H   -0.361617   -0.683945    1.084976
 H   -0.102666   -1.623931   -1.471766
 H    0.416908   -0.463175   -2.673368
 H   -0.169057    1.403655    2.547487
 H    0.640473    2.188156    1.197496
 H    2.374721    1.273163    2.636198
 H    1.551267   -0.261348    2.768538
 H    4.327012   -0.198463    2.122538
 H    4.698310   -1.511603   -1.925355
 H    2.375758   -0.893291   -2.346008
