42 
6mnc_ligand_ani-2x.xyz
 C    0.549455    0.250027   -0.630748
 C   -1.603189   -0.154194   -1.991571
 C   -2.390780   -0.136234   -0.684578
 C   -2.608040   -1.558824   -0.144416
 O   -4.531965    0.439193   -1.694870
 O    5.974424   -1.181681    0.410036
 C   -3.768639    0.523217   -0.761536
 C   -4.034299    1.272485    0.550496
 C   -2.737171    1.103367    1.374157
 C   -1.679992    0.807976    0.305069
 C   -0.288728    0.308274    0.670487
 C   -0.144392   -0.571552   -1.740513
 C    0.438669    1.190926    1.681833
 C    1.761762    0.544433    2.084928
 C    2.563409    0.007471    0.912745
 C    1.986913   -0.181502   -0.354252
 C    3.896925   -0.333769    1.134851
 C    4.680290   -0.870361    0.120920
 C    4.120527   -1.069845   -1.138856
 C    2.795112   -0.726351   -1.359263
 H    0.592163    1.292478   -0.996977
 H   -1.626482    0.848682   -2.440041
 H   -2.087518   -0.828287   -2.707490
 H   -3.167298   -1.556262    0.797351
 H   -3.187926   -2.141215   -0.869683
 H   -1.660925   -2.078549    0.027563
 H    6.392825   -1.542679   -0.381373
 H   -4.930590    0.879881    1.045478
 H   -4.236980    2.321588    0.306019
 H   -2.503787    1.997267    1.963908
 H   -2.823725    0.266652    2.078927
 H   -1.533986    1.757307   -0.239730
 H   -0.353801   -0.703919    1.097777
 H   -0.098945   -1.637157   -1.478652
 H    0.408161   -0.461862   -2.679024
 H   -0.174993    1.359309    2.576371
 H    0.626351    2.178707    1.235941
 H    2.376038    1.252151    2.654433
 H    1.559989   -0.292613    2.769274
 H    4.344368   -0.187787    2.115010
 H    4.716346   -1.491572   -1.947003
 H    2.390525   -0.894876   -2.352300
