41 
6mo8_ligand_xtb.xyz
 C   78.053018   11.274746  -10.549035
 C   76.183744    9.950704   -9.816295
 C   75.304565   10.836571  -10.466321
 C   75.823533   11.954442  -11.176155
 C   77.225838   12.168389  -11.180679
 C   77.543016   10.151175   -9.865252
 C   78.467093    9.233427   -9.210869
 C   79.681266    8.776917   -9.666420
 O   80.214718    7.954572   -8.749676
 N   79.383214    7.868713   -7.682593
 C   78.336181    8.606402   -7.930865
 C   77.231276    8.739248   -6.950563
 C   80.430052    8.991256  -10.929586
 N   73.981553   10.580734  -10.401167
 C   73.159343   11.374881  -11.024424
 C   73.566592   12.483726  -11.787807
 C   74.902874   12.770344  -11.864482
 C   77.796222   13.342412  -11.843331
 C   78.661469   13.381105  -12.905439
 O   78.956056   14.661804  -13.188010
 N   78.310456   15.473492  -12.314329
 C   77.614665   14.720296  -11.507588
 C   76.816695   15.284835  -10.392287
 C   79.258549   12.305398  -13.733111
 H   79.118098   11.452344  -10.544714
 H   75.755009    9.102913   -9.308160
 H   76.825553    9.748289   -6.971753
 H   76.430815    8.040030   -7.189275
 H   77.601725    8.506134   -5.956260
 H   79.743489    9.250748  -11.731158
 H   81.156561    9.795531  -10.811677
 H   80.971772    8.084051  -11.187034
 H   72.108304   11.129055  -10.937089
 H   72.833275   13.084134  -12.303641
 H   75.261048   13.601064  -12.456710
 H   75.771030   14.994565  -10.478836
 H   77.192154   14.904956   -9.442853
 H   76.895643   16.367745  -10.404810
 H   80.321073   12.205158  -13.513284
 H   78.759380   11.363461  -13.522270
 H   79.156285   12.546932  -14.789093
