52 
6moa_ligand_aiqm1.xyz
 C    8.560197   61.663495   -4.983005
 C    9.137982   60.723800   -4.134552
 C    8.355728   59.628763   -3.776418
 C    7.037894   59.453058   -4.232700
 C    6.451637   60.401403   -5.084560
 C    7.235090   61.492642   -5.445119
 C    5.054032   60.234413   -5.581434
 C    9.332186   62.849070   -5.397144
 C   10.064797   63.746849   -4.557616
 N   10.629116   64.696676   -5.261064
 O   10.294017   64.449078   -6.584154
 C    9.516501   63.351647   -6.650411
 C    9.076918   62.930752   -8.004667
 C   10.216434   63.734064   -3.075518
 N    8.595367   58.529891   -2.973656
 C    7.447902   57.767080   -2.980668
 N    6.501211   58.284365   -3.718150
 C    7.331982   56.509688   -2.233672
 C    8.034030   56.365267   -0.902698
 C    8.540125   55.611463   -2.094602
 C    3.993402   60.943351   -4.938284
 C    2.661511   60.786960   -5.394881
 C    2.407955   59.924847   -6.487634
 C    3.439620   59.256249   -7.087427
 C    4.783006   59.396857   -6.643990
 C    4.197731   61.813233   -3.835229
 C    3.122612   62.451311   -3.273253
 C    1.835334   62.224278   -3.812946
 N    1.596510   61.429211   -4.831338
 C    5.871425   58.626553   -7.346257
 H   10.154426   60.841344   -3.780686
 H    6.820069   62.251392   -6.096229
 H    8.544698   63.740719   -8.503919
 H    9.941461   62.660113   -8.612674
 H    8.418344   62.067581   -7.925726
 H   10.690915   64.659273   -2.752633
 H    9.246820   63.629039   -2.587908
 H   10.832538   62.892628   -2.752742
 H    9.440244   58.318138   -2.478072
 H    6.365903   56.039347   -2.346033
 H    8.605400   57.215944   -0.552487
 H    7.524861   55.808789   -0.132716
 H    8.372039   54.547246   -2.126904
 H    9.458413   55.945518   -2.561389
 H    1.383994   59.816270   -6.820106
 H    3.240359   58.593835   -7.922623
 H    5.194643   61.964370   -3.442831
 H    3.240427   63.118582   -2.429937
 H    0.975173   62.722958   -3.379201
 H    6.660083   59.290984   -7.706400
 H    6.337030   57.904651   -6.670667
 H    5.464911   58.082967   -8.199070
