52 
6moa_ligand_ani-2x.xyz
 C    8.497091   61.698534   -4.880246
 C    9.106488   60.733332   -4.080293
 C    8.370715   59.605240   -3.749425
 C    7.053493   59.390948   -4.184939
 C    6.423115   60.374163   -4.970711
 C    7.168488   61.506017   -5.302324
 C    5.060331   60.177710   -5.487456
 C    9.231434   62.904538   -5.292828
 C   10.115984   63.733038   -4.524316
 N   10.542566   64.745841   -5.229388
 O    9.968346   64.612709   -6.476809
 C    9.196057   63.523546   -6.509835
 C    8.517094   63.238017   -7.808801
 C   10.559713   63.590131   -3.100230
 N    8.676402   58.493214   -2.989243
 C    7.566787   57.688522   -2.991858
 N    6.580149   58.188755   -3.693270
 C    7.496785   56.405130   -2.282839
 C    8.210191   56.212599   -0.966412
 C    8.710617   55.512883   -2.184640
 C    3.984862   61.015467   -5.024452
 C    2.682068   60.814791   -5.537482
 C    2.464126   59.809821   -6.512770
 C    3.507757   59.052921   -6.962561
 C    4.823219   59.223825   -6.471754
 C    4.138295   62.049804   -4.058507
 C    3.050715   62.786777   -3.678676
 C    1.794812   62.491968   -4.259042
 N    1.601601   61.552839   -5.147558
 C    5.922482   58.374642   -7.064702
 H   10.132777   60.861248   -3.747542
 H    6.686084   62.286458   -5.887249
 H    9.204758   63.395545   -8.643679
 H    8.156663   62.206500   -7.838197
 H    7.659519   63.905296   -7.955224
 H   10.944217   64.543891   -2.731540
 H    9.730671   63.263355   -2.465880
 H   11.361819   62.847827   -3.008551
 H    9.549889   58.317699   -2.518948
 H    6.530814   55.923785   -2.401898
 H    8.785207   57.048994   -0.576214
 H    7.701995   55.625898   -0.208843
 H    8.547696   54.443757   -2.267137
 H    9.632949   55.863786   -2.641383
 H    1.452738   59.682267   -6.886453
 H    3.335128   58.297090   -7.728037
 H    5.117217   62.250891   -3.627177
 H    3.135212   63.583709   -2.945145
 H    0.917479   63.068960   -3.964777
 H    6.802488   58.980884   -7.305967
 H    6.247622   57.604574   -6.355704
 H    5.580273   57.877865   -7.975089
