52 
6moa_ligand_xtb.xyz
 C    8.649515   61.634223   -5.089148
 C    9.143637   60.762506   -4.126700
 C    8.296995   59.761691   -3.688700
 C    6.979267   59.612397   -4.179424
 C    6.487500   60.491922   -5.148326
 C    7.344247   61.488849   -5.581276
 C    5.116666   60.354096   -5.676691
 C    9.489935   62.713227   -5.598759
 C   10.337630   63.598517   -4.862855
 N   10.919169   64.443934   -5.669884
 O   10.508986   64.160727   -6.930414
 C    9.646129   63.131282   -6.898213
 C    9.086168   62.645249   -8.182973
 C   10.562172   63.646714   -3.396381
 N    8.451324   58.748181   -2.776450
 C    7.268841   58.050518   -2.752843
 N    6.382578   58.538464   -3.571843
 C    7.034020   56.889711   -1.897500
 C    7.644777   56.814948   -0.521072
 C    8.147434   55.917170   -1.601304
 C    4.018989   60.548714   -4.798439
 C    2.692970   60.394050   -5.287849
 C    2.496462   60.061357   -6.643484
 C    3.571141   59.886123   -7.464800
 C    4.892862   60.023791   -6.996848
 C    4.162149   60.917929   -3.444865
 C    3.046164   61.076525   -2.668995
 C    1.784366   60.875545   -3.253600
 N    1.608512   60.557995   -4.504562
 C    6.017088   59.788169   -7.962495
 H   10.153077   60.850800   -3.756185
 H    6.984139   62.202071   -6.307089
 H    9.834805   62.740911   -8.966236
 H    8.782770   61.606416   -8.084569
 H    8.219260   63.240679   -8.470122
 H   10.862556   64.650509   -3.109527
 H    9.654158   63.363721   -2.868190
 H   11.359382   62.959788   -3.113493
 H    9.277522   58.554627   -2.237015
 H    6.037458   56.491706   -2.030257
 H    8.266711   57.634440   -0.192114
 H    7.046650   56.387272    0.268252
 H    7.896935   54.868804   -1.558931
 H    9.120743   56.108862   -2.028458
 H    1.484149   59.948306   -6.998095
 H    3.420315   59.626050   -8.503358
 H    5.148496   61.074301   -3.033715
 H    3.120990   61.356182   -1.628932
 H    0.882737   60.991437   -2.664224
 H    6.202372   60.686917   -8.552048
 H    6.933600   59.523043   -7.441490
 H    5.758483   58.986634   -8.651514
