89 
6mqm_ligand_xtb.xyz
 N    0.643661    0.496159   -2.025925
 C    1.919971    0.792477   -2.722222
 C    2.899681   -0.263545   -2.175404
 O    3.028140   -1.331190   -2.742507
 C    2.313069    2.245510   -2.517282
 N    3.483304    0.035180   -1.009577
 C    4.181038   -0.976813   -0.234022
 C    3.109846   -1.701700    0.596102
 O    2.992381   -1.580195    1.808299
 C    5.319994   -0.387347    0.613064
 C    4.925105    0.896814    1.342607
 C    6.541702   -0.137078   -0.267701
 N    2.282999   -2.453260   -0.140771
 C    1.059057   -3.011628    0.378052
 C   -0.123671   -2.558276   -0.471895
 O    0.030463   -2.067770   -1.582829
 N   -1.334782   -2.777441    0.046286
 C   -2.527493   -2.476525   -0.717801
 C   -2.831598   -0.974935   -0.673778
 O   -2.323197   -0.203022    0.120534
 C   -3.743153   -3.324938   -0.286177
 C   -4.433770   -2.826249    0.993773
 C   -3.365706   -4.804027   -0.208030
 C   -3.567739   -2.756392    2.246951
 N   -3.716734   -0.564885   -1.600730
 C   -4.041504    0.842025   -1.725621
 C   -2.741090    1.642457   -1.798193
 O   -1.843374    1.313173   -2.560510
 N   -2.650811    2.698364   -0.985018
 C   -1.482832    3.554315   -0.945165
 C   -0.435735    3.116216    0.094749
 O    0.691444    3.568274    0.063350
 C   -1.889876    4.988359   -0.616015
 N   -0.881863    2.295961    1.061498
 C   -0.031272    1.950549    2.177168
 C    0.882974    0.786221    1.825094
 O    1.072913    0.433445    0.673246
 C   -0.835621    1.718187    3.468669
 C   -1.687660    2.944998    3.782432
 C   -1.693777    0.458380    3.379799
 O    1.466889    0.245487    2.853327
 H   -0.187227    1.005665   -2.398088
 H    0.421768   -0.525483   -2.082299
 H    0.730641    0.693999   -1.005399
 H    1.789736    0.573823   -3.786689
 H    1.692788    2.888471   -3.136862
 H    3.347718    2.402551   -2.807878
 H    2.182204    2.561754   -1.484288
 H    3.260437    0.892647   -0.528210
 H    4.596557   -1.694667   -0.950866
 H    5.568985   -1.143594    1.363776
 H    3.997727    0.769932    1.893101
 H    4.828137    1.732243    0.651498
 H    5.701571    1.153957    2.057857
 H    6.299833    0.562580   -1.064842
 H    7.349214    0.283849    0.324490
 H    6.894973   -1.061945   -0.716368
 H    2.407590   -2.500278   -1.147707
 H    0.948416   -2.691262    1.416995
 H    1.099373   -4.107697    0.350543
 H   -1.447694   -3.114057    0.988354
 H   -2.281757   -2.717234   -1.761675
 H   -4.482866   -3.223977   -1.089006
 H   -5.276841   -3.492412    1.185871
 H   -4.844911   -1.831725    0.803704
 H   -4.260256   -5.400672   -0.052251
 H   -2.898921   -5.126170   -1.135699
 H   -2.679192   -5.010739    0.607528
 H   -3.106103   -3.716004    2.467395
 H   -2.805339   -1.987407    2.153142
 H   -4.191720   -2.494000    3.097828
 H   -4.043014   -1.200467   -2.309230
 H   -4.648738    1.164713   -0.873754
 H   -4.602314    0.993693   -2.648114
 H   -3.416727    2.943006   -0.376296
 H   -1.008784    3.524462   -1.932442
 H   -2.368288    5.034577    0.360318
 H   -2.574161    5.372918   -1.367999
 H   -1.004309    5.616897   -0.594466
 H   -1.677265    1.694256    0.895737
 H    0.643179    2.807681    2.324706
 H   -0.106420    1.581493    4.271867
 H   -1.074079    3.841427    3.821125
 H   -2.458544    3.085460    3.028384
 H   -2.172793    2.822409    4.746643
 H   -1.064741   -0.422674    3.278183
 H   -2.281782    0.349902    4.287214
 H   -2.375478    0.496781    2.533571
 H    2.099797   -0.489689    2.592675
