89 
6mqm_ligand_aiqm1.xyz
 N    0.735421    0.541885   -2.127441
 C    2.105498    1.025086   -2.500825
 C    3.012221   -0.135809   -2.088600
 O    2.906168   -1.178239   -2.720579
 C    2.368540    2.374290   -1.863827
 N    3.801256    0.024619   -1.014499
 C    4.356924   -1.141033   -0.310910
 C    3.219436   -1.687550    0.574643
 O    3.140750   -1.442449    1.778606
 C    5.631006   -0.790234    0.457108
 C    5.531291    0.507577    1.257768
 C    6.812658   -0.725702   -0.509841
 N    2.288484   -2.393875   -0.085219
 C    1.036224   -2.769717    0.520181
 C   -0.122274   -2.493110   -0.426636
 O    0.043922   -2.062770   -1.561486
 N   -1.344108   -2.766123    0.063949
 C   -2.530163   -2.531885   -0.729335
 C   -2.910022   -1.046183   -0.739255
 O   -2.658170   -0.270284    0.178900
 C   -3.733688   -3.401050   -0.297208
 C   -4.477521   -2.880800    0.943020
 C   -3.335749   -4.870482   -0.167944
 C   -3.650068   -2.763326    2.223113
 N   -3.599850   -0.625375   -1.823021
 C   -4.039427    0.748391   -1.905025
 C   -2.864871    1.723383   -1.831585
 O   -1.838600    1.550889   -2.481799
 N   -3.011369    2.761667   -0.999367
 C   -1.963452    3.754575   -0.835012
 C   -0.803657    3.299178    0.052863
 O    0.244730    3.925623    0.043955
 C   -2.557772    5.030052   -0.252629
 N   -1.016055    2.230930    0.859140
 C   -0.111207    1.979760    1.966962
 C    0.844296    0.842616    1.678677
 O    1.052780    0.393623    0.561394
 C   -0.842820    1.843166    3.314612
 C   -1.618599    3.121242    3.618892
 C   -1.756656    0.624057    3.380430
 O    1.487390    0.421037    2.743544
 H   -0.016802    1.094393   -2.545146
 H    0.625265   -0.446108   -2.388804
 H    0.650016    0.590107   -1.093755
 H    2.159336    1.079556   -3.584326
 H    1.683055    3.127111   -2.244210
 H    3.380557    2.703844   -2.081185
 H    2.234514    2.331203   -0.786288
 H    3.720844    0.871435   -0.476169
 H    4.581049   -1.882444   -1.075170
 H    5.789095   -1.613393    1.155300
 H    4.644348    0.533135    1.888486
 H    5.528476    1.384255    0.602007
 H    6.403451    0.596389    1.901812
 H    6.680436    0.088961   -1.227085
 H    7.736641   -0.543734    0.034017
 H    6.927426   -1.655015   -1.068201
 H    2.353776   -2.457482   -1.092643
 H    0.895792   -2.186732    1.429227
 H    1.015470   -3.824910    0.801397
 H   -1.449124   -2.966511    1.042687
 H   -2.274272   -2.809574   -1.753017
 H   -4.440071   -3.330530   -1.132269
 H   -5.319050   -3.551811    1.118148
 H   -4.907426   -1.902982    0.708949
 H   -4.225811   -5.483765   -0.049653
 H   -2.803649   -5.217131   -1.054402
 H   -2.697444   -5.054760    0.697695
 H   -3.112104   -3.686554    2.448109
 H   -2.931191   -1.944102    2.158529
 H   -4.300506   -2.558190    3.070889
 H   -3.703537   -1.224154   -2.620670
 H   -4.750824    0.960291   -1.108106
 H   -4.533717    0.888637   -2.861226
 H   -3.867407    2.870441   -0.481121
 H   -1.534557    3.965092   -1.812315
 H   -3.019694    4.821758    0.714675
 H   -3.312146    5.433109   -0.926568
 H   -1.777456    5.773334   -0.110988
 H   -1.841548    1.660019    0.739589
 H    0.538945    2.859387    2.027478
 H   -0.056961    1.724749    4.060380
 H   -0.990302    4.005900    3.511782
 H   -2.473204    3.225118    2.945700
 H   -2.000025    3.094104    4.636967
 H   -1.214332   -0.303429    3.175757
 H   -2.184177    0.543852    4.378698
 H   -2.586930    0.698136    2.675192
 H    2.124634   -0.284321    2.474036
