89 
6mqm_ligand_ani-2x.xyz
 N    0.341149   -0.108808   -2.116815
 C    1.617246    0.502748   -2.590352
 C    2.737222   -0.414505   -2.083815
 O    2.941496   -1.483042   -2.656379
 C    1.687006    1.960882   -2.170781
 N    3.413768   -0.047546   -0.965520
 C    4.168866   -1.051848   -0.210815
 C    3.184801   -1.902764    0.622077
 O    3.082833   -1.789344    1.847368
 C    5.294261   -0.436966    0.632019
 C    4.884605    0.830272    1.389391
 C    6.509824   -0.148209   -0.252047
 N    2.418950   -2.760272   -0.089387
 C    1.185894   -3.308889    0.442614
 C    0.036089   -2.945902   -0.499904
 O    0.192365   -2.977355   -1.719959
 N   -1.152167   -2.606702    0.064794
 C   -2.333378   -2.349178   -0.736452
 C   -2.770155   -0.890528   -0.583525
 O   -2.443149   -0.194713    0.372583
 C   -3.515470   -3.323886   -0.479426
 C   -4.383480   -2.988696    0.747438
 C   -3.028686   -4.773766   -0.480166
 C   -3.656093   -2.883276    2.088591
 N   -3.602382   -0.423987   -1.554103
 C   -3.960736    0.980693   -1.604253
 C   -2.729099    1.885745   -1.742280
 O   -1.806701    1.628339   -2.506599
 N   -2.721628    2.976638   -0.932990
 C   -1.571791    3.846992   -0.807203
 C   -0.698183    3.561752    0.428765
 O    0.046239    4.430988    0.863450
 C   -1.971092    5.316930   -0.846928
 N   -0.758682    2.315974    0.974112
 C    0.085059    1.959382    2.087745
 C    0.821061    0.657899    1.790536
 O    0.794742    0.072603    0.722743
 C   -0.663483    1.926751    3.442929
 C   -1.230694    3.307678    3.766362
 C   -1.765002    0.866360    3.469872
 O    1.537757    0.238016    2.824745
 H   -0.466729    0.400538   -2.509770
 H    0.309839   -1.107644   -2.388744
 H    0.297751   -0.051328   -1.086307
 H    1.665401    0.417178   -3.679555
 H    0.868859    2.501357   -2.660550
 H    2.631817    2.418722   -2.472769
 H    1.561887    2.079172   -1.088739
 H    3.056199    0.736424   -0.437401
 H    4.606065   -1.711797   -0.966228
 H    5.564128   -1.200654    1.370248
 H    3.990533    0.685618    2.002749
 H    4.700107    1.669543    0.706729
 H    5.697373    1.137669    2.057020
 H    6.259653    0.581774   -1.031866
 H    7.330089    0.264494    0.344429
 H    6.875251   -1.057708   -0.741660
 H    2.489975   -2.742686   -1.104426
 H    1.017344   -2.913524    1.449465
 H    1.250543   -4.403785    0.515886
 H   -1.176298   -2.311959    1.031581
 H   -2.012010   -2.513026   -1.771116
 H   -4.172161   -3.205320   -1.354122
 H   -5.153847   -3.767549    0.818570
 H   -4.917903   -2.049391    0.555405
 H   -3.880894   -5.461845   -0.499527
 H   -2.407283   -4.980784   -1.358788
 H   -2.432679   -5.003701    0.408640
 H   -3.023168   -3.757602    2.281981
 H   -3.030170   -1.986894    2.121060
 H   -4.378038   -2.809692    2.908692
 H   -3.673176   -0.956990   -2.406954
 H   -4.510618    1.257226   -0.699689
 H   -4.622853    1.131312   -2.462114
 H   -3.499110    3.137779   -0.310664
 H   -0.937288    3.613217   -1.667581
 H   -2.618939    5.567854    0.000672
 H   -2.508886    5.529842   -1.774721
 H   -1.082807    5.949266   -0.788749
 H   -1.385467    1.598559    0.617312
 H    0.853076    2.743334    2.151903
 H    0.091999    1.666349    4.194106
 H   -0.467605    4.089136    3.682966
 H   -2.045219    3.563205    3.078778
 H   -1.633536    3.327564    4.784459
 H   -1.375144   -0.133842    3.245461
 H   -2.230893    0.827848    4.460324
 H   -2.548317    1.093356    2.737551
 H    2.035722   -0.572746    2.557520
