45 
6mrg_ligand_ani-2x.xyz
 C    2.762554   -0.889810   -0.986324
 C    2.406615    0.454579   -0.883545
 C    3.808990   -1.250601   -1.843659
 C    3.074001    1.427292   -1.612157
 C    4.467122   -0.285638   -2.589617
 C    4.104123    1.053616   -2.486555
 C    2.031380   -1.910447   -0.190315
 C    0.695870   -1.730096    0.146160
 C   -1.886520   -1.385864    1.620120
 C   -3.347994   -1.443687    1.153116
 C   -4.880570    1.994684    0.575851
 C   -4.265633    0.769613    0.336158
 C   -4.472556    0.216968    2.669482
 O   -3.388074   -1.781712   -0.213179
 C    3.640664    3.658615   -1.965617
 C    0.096446   -2.710132    0.949439
 C    2.034493   -3.865125    0.946405
 C   -5.296623    2.331466    1.861448
 C   -5.092901    1.438022    2.910426
 C   -4.058880   -0.127597    1.382336
 C    4.115487    3.222368   -3.334740
 N    0.769625   -3.795679    1.350059
 N    2.706968   -3.003604    0.193310
 N   -1.227669   -2.650716    1.330903
 O    4.782816    1.970918   -3.233646
 O    2.685766    2.729003   -1.471384
 H    1.611755    0.771664   -0.214318
 H    4.103962   -2.292431   -1.918858
 H    5.276185   -0.547371   -3.264713
 H    0.121313   -0.898404   -0.248753
 H   -1.378005   -0.588983    1.075918
 H   -1.836326   -1.145094    2.689222
 H   -3.855678   -2.219748    1.753400
 H   -5.039014    2.688365   -0.246829
 H   -3.949386    0.491325   -0.665551
 H   -4.303431   -0.480833    3.489113
 H   -2.703831   -2.460969   -0.328922
 H    3.131903    4.624367   -2.007702
 H    4.494774    3.724399   -1.277430
 H    2.586120   -4.746149    1.268716
 H   -5.778955    3.288349    2.045718
 H   -5.414992    1.695034    3.916637
 H    3.258694    3.138236   -4.017471
 H    4.843659    3.923887   -3.748187
 H   -1.433847   -3.402378    1.978335
