45 
6mrg_ligand_dft.xyz
 C    2.625641    1.012234   -0.042995
 C    2.481584   -0.364068   -0.230010
 C    3.900334    1.527450    0.221154
 C    3.574978   -1.213429   -0.134129
 C    4.993345    0.682783    0.328876
 C    4.840994   -0.690786    0.163626
 C    1.469055    1.937295   -0.132094
 C    0.153625    1.492208   -0.053782
 C   -2.779493    0.860423   -0.347388
 C   -4.137827    0.759078    0.361179
 C   -5.104768   -2.888823    0.846017
 C   -4.590662   -1.618024    1.087665
 C   -5.408909   -0.887871   -1.055271
 O   -3.971470    0.995648    1.737839
 C    4.573654   -3.266309   -0.587540
 C   -0.857783    2.453781   -0.167791
 C    0.718288    4.065022   -0.368274
 C   -5.765738   -3.163987   -0.347799
 C   -5.916763   -2.159502   -1.300257
 C   -4.740993   -0.608987    0.137737
 C    5.636418   -2.865725    0.418531
 N   -0.573437    3.754563   -0.333349
 N    1.756427    3.244572   -0.284297
 N   -2.201430    2.165988   -0.083148
 O    5.940549   -1.486996    0.283490
 O    3.375828   -2.550665   -0.338861
 H    1.528325   -0.814925   -0.484916
 H    4.016261    2.597245    0.346746
 H    5.983539    1.067748    0.549330
 H   -0.075091    0.447890    0.110552
 H   -2.133119    0.086687    0.073540
 H   -2.890754    0.662737   -1.422701
 H   -4.812565    1.516282   -0.077558
 H   -4.991135   -3.666340    1.595893
 H   -4.084688   -1.391447    2.019804
 H   -5.539312   -0.102036   -1.796744
 H   -3.311757    1.701861    1.809649
 H    4.327240   -4.326459   -0.500260
 H    4.928388   -3.060503   -1.606368
 H    0.947575    5.121770   -0.490654
 H   -6.168923   -4.155209   -0.532864
 H   -6.436384   -2.363406   -2.231863
 H    5.280502   -3.069476    1.437029
 H    6.569831   -3.406173    0.248779
 H   -2.757997    2.957420   -0.386305
