45 
6mrg_ligand_aiqm1.xyz
 C    2.861508   -0.799889   -0.982683
 C    2.492670    0.548611   -1.018567
 C    4.024677   -1.200100   -1.650088
 C    3.252588    1.474575   -1.721955
 C    4.777450   -0.282648   -2.367803
 C    4.391624    1.054897   -2.420645
 C    2.054720   -1.795587   -0.246503
 C    0.720481   -1.569771    0.080891
 C   -1.989760   -1.257033    1.263042
 C   -3.496966   -1.509728    1.309223
 C   -5.400812    1.742697    0.768454
 C   -4.759271    0.532848    0.509591
 C   -4.389146    0.236679    2.870832
 O   -3.939531   -2.074681    0.088913
 C    3.874970    3.674750   -2.129518
 C    0.051160   -2.578655    0.785764
 C    1.940206   -3.826569    0.755714
 C   -5.531570    2.204525    2.075351
 C   -5.026297    1.446771    3.128471
 C   -4.244148   -0.226184    1.561362
 C    4.510728    3.161561   -3.397682
 N    0.669555   -3.713805    1.140946
 N    2.673324   -2.947593    0.082778
 N   -1.282876   -2.516646    1.111585
 O    5.163085    1.923584   -3.135924
 O    2.844413    2.781147   -1.722664
 H    1.622760    0.913619   -0.487965
 H    4.326447   -2.235552   -1.601226
 H    5.674993   -0.578602   -2.893874
 H    0.213714   -0.662943   -0.214721
 H   -1.777597   -0.626465    0.402271
 H   -1.668061   -0.713349    2.160010
 H   -3.687514   -2.208336    2.138911
 H   -5.800717    2.324005   -0.053172
 H   -4.662730    0.165026   -0.503089
 H   -4.000426   -0.353287    3.694873
 H   -3.283431   -2.728054   -0.172276
 H    3.398568    4.639713   -2.288389
 H    4.627351    3.756767   -1.339176
 H    2.433159   -4.749943    1.031271
 H   -6.028923    3.144763    2.273090
 H   -5.129030    1.793191    4.148574
 H    3.746423    3.020618   -4.167837
 H    5.278619    3.841839   -3.759467
 H   -1.525987   -3.227065    1.786104
