45 
6mrg_ligand_xtb.xyz
 C    2.598188   -0.837677   -0.995751
 C    2.411575    0.534816   -0.872747
 C    3.495853   -1.313159   -1.953658
 C    3.084395    1.417341   -1.702897
 C    4.150453   -0.443236   -2.796535
 C    3.940575    0.927991   -2.694713
 C    1.898059   -1.798883   -0.137774
 C    0.737590   -1.482051    0.553608
 C   -1.811062   -1.191684    2.157066
 C   -2.954105   -1.275474    1.110106
 C   -4.537016    2.157396    0.893362
 C   -3.694732    1.084332    0.662642
 C   -4.942634   -0.228909    2.231988
 O   -2.447800   -1.231098   -0.202226
 C    3.854170    3.562306   -2.156351
 C    0.167099   -2.489369    1.345547
 C    1.807319   -3.903862    0.690517
 C   -5.578612    2.042338    1.797593
 C   -5.780046    0.846635    2.466477
 C   -3.894523   -0.116629    1.328069
 C    4.074337    3.070160   -3.585969
 N    0.714956   -3.712607    1.402588
 N    2.429073   -3.030960   -0.067339
 N   -0.937980   -2.331414    2.113988
 O    4.586015    1.756261   -3.574026
 O    2.887995    2.763918   -1.511672
 H    1.767587    0.958749   -0.119406
 H    3.655346   -2.376581   -2.024409
 H    4.831254   -0.798458   -3.553504
 H    0.282315   -0.511427    0.465041
 H   -1.236969   -0.281529    1.972923
 H   -2.253205   -1.123659    3.154193
 H   -3.497010   -2.222682    1.271915
 H   -4.378483    3.086765    0.366458
 H   -2.887780    1.161332   -0.048776
 H   -5.106841   -1.163575    2.749795
 H   -1.803533   -1.939622   -0.312352
 H    3.472473    4.584202   -2.142342
 H    4.805798    3.515603   -1.608663
 H    2.236599   -4.897531    0.737575
 H   -6.235250    2.880398    1.978792
 H   -6.594192    0.750204    3.169683
 H    3.118146    3.094251   -4.126819
 H    4.807797    3.684653   -4.109988
 H   -1.242792   -3.177873    2.570791
