30 
6msa_ligand_ani-2x.xyz
 C  -19.412889   11.281669  -35.432614
 C  -20.268984   12.801024  -33.831117
 C  -21.282973   14.526455  -35.771412
 C  -21.437165   14.834221  -34.374892
 C  -18.998645   10.559052  -36.535712
 C  -19.126282   10.750553  -38.018107
 C  -20.635856   13.376426  -36.163598
 C  -21.682161   15.177903  -37.997164
 C  -22.247220   16.298189  -32.727441
 C  -20.934629   13.976023  -33.436760
 C  -20.111522   12.492812  -35.189507
 C  -18.962226   10.521203  -34.321132
 N  -19.793561   11.992565  -32.780432
 N  -18.374695    9.483851  -36.013251
 N  -19.172376   10.907691  -32.995126
 N  -18.324662    9.416033  -34.684988
 O  -21.814402   15.438531  -36.617989
 O  -22.089620   15.987165  -34.094833
 H  -20.149658   10.560224  -38.357926
 H  -18.864484   11.774645  -38.302451
 H  -18.461483   10.069232  -38.559174
 H  -20.523233   13.130794  -37.216371
 H  -22.157450   16.013973  -38.511794
 H  -20.626093   15.119619  -38.291292
 H  -22.186277   14.243299  -38.275149
 H  -22.786444   17.245526  -32.693507
 H  -22.831096   15.527201  -32.207961
 H  -21.275275   16.413612  -32.230259
 H  -21.015412   14.143560  -32.369276
 H  -17.945226    8.738952  -36.541766
