30 
6msa_ligand_aiqm1.xyz
 C  -19.429261   11.273188  -35.456455
 C  -20.263107   12.792949  -33.837931
 C  -21.270320   14.552791  -35.760085
 C  -21.419165   14.845336  -34.372303
 C  -19.015292   10.512525  -36.551907
 C  -19.125944   10.679886  -38.027725
 C  -20.627957   13.398748  -36.159484
 C  -21.674694   15.231062  -37.982953
 C  -22.229892   16.323614  -32.726456
 C  -20.919241   13.971515  -33.437666
 C  -20.113268   12.498857  -35.201781
 C  -18.999208   10.528182  -34.332090
 N  -19.799363   11.986312  -32.792667
 N  -18.405295    9.434677  -36.009347
 N  -19.186875   10.889397  -33.010512
 N  -18.368972    9.396477  -34.673826
 O  -21.796606   15.475908  -36.593062
 O  -22.065313   16.003664  -34.099055
 H  -19.682930    9.854832  -38.475696
 H  -19.646710   11.605343  -38.264688
 H  -18.139387   10.718981  -38.493376
 H  -20.518017   13.182142  -37.210916
 H  -22.150749   16.070486  -38.477101
 H  -20.625369   15.176190  -38.283514
 H  -22.180217   14.304468  -38.266318
 H  -22.760120   17.269995  -32.704092
 H  -22.819314   15.562601  -32.210160
 H  -21.264819   16.433974  -32.226873
 H  -21.005802   14.146664  -32.375353
 H  -17.988794    8.681237  -36.529609
