87 
6mu3_ligand_xtb.xyz
 C   -2.181878    1.094788    4.106623
 C   -2.154449    0.097592    2.934421
 C   -2.524536    0.861127    1.657871
 C   -3.888244    1.539974    1.842525
 C   -3.855500    2.436852    3.086773
 C   -5.256102    2.972354    3.411710
 O   -1.964025    0.371957    5.271448
 O   -3.070668   -0.939490    3.159160
 O   -2.640393    0.040180    0.504609
 O   -4.196442    2.349797    0.739666
 O   -3.433201    1.720380    4.233241
 O   -6.137282    1.940759    3.753044
 C   -1.437472   -0.480509    0.029320
 C   -1.621533   -0.796789   -1.469977
 C   -2.663171   -1.910298   -1.589901
 C   -2.182393   -3.135263   -0.797113
 C   -1.921829   -2.722315    0.659474
 C   -1.272335   -3.845783    1.472571
 O   -0.420027   -1.241764   -2.075854
 O   -2.889749   -2.220982   -2.935336
 O   -3.182133   -4.118847   -0.902964
 O   -1.016833   -1.626112    0.728505
 O   -2.161094   -4.941195    1.541164
 C    0.653960   -0.354729   -1.972361
 C    1.614757   -0.600877   -3.150431
 C    2.198049   -2.013006   -3.019047
 C    2.868069   -2.171062   -1.639218
 C    1.873005   -1.789590   -0.540014
 C    2.501415   -1.742712    0.856190
 O    2.723474    0.291812   -3.129813
 O    3.115751   -2.306652   -4.039971
 O    3.285017   -3.496829   -1.443292
 O    1.349939   -0.492877   -0.769916
 O    1.655657   -1.105369    1.778855
 C    2.437535    1.660742   -3.249858
 C    3.756206    2.351199   -3.653781
 C    4.719534    2.341839   -2.460031
 C    4.021237    2.958033   -1.233489
 C    2.731668    2.176782   -0.956556
 C    1.963749    2.737226    0.245574
 O    3.559181    3.699295   -4.005708
 O    5.909266    3.027411   -2.748115
 O    4.863882    2.894029   -0.113010
 O    1.890276    2.237008   -2.107118
 O    0.990701    1.868770    0.762445
 H   -1.395627    1.861161    3.949785
 H   -1.131577   -0.300939    2.854634
 H   -1.749142    1.622717    1.476418
 H   -4.646360    0.755469    1.979931
 H   -3.169839    3.274927    2.890719
 H   -5.171215    3.697221    4.234268
 H   -5.661152    3.466562    2.528101
 H   -2.185926    0.932990    6.024257
 H   -3.026643   -1.150494    4.102221
 H   -4.109933    1.797740   -0.046889
 H   -5.678292    1.369896    4.382353
 H   -0.627873    0.247262    0.175166
 H   -1.979093    0.107029   -1.982230
 H   -3.592148   -1.545557   -1.121327
 H   -1.243646   -3.494163   -1.251518
 H   -2.876007   -2.441691    1.126683
 H   -0.329784   -4.141946    0.990195
 H   -1.048192   -3.455722    2.472369
 H   -3.322718   -3.085129   -2.946424
 H   -3.089502   -4.718956   -0.148861
 H   -1.792073   -5.609597    2.127598
 H    0.304767    0.686106   -1.979064
 H    1.065544   -0.497021   -4.096577
 H    1.382961   -2.737460   -3.112799
 H    3.733482   -1.487202   -1.597221
 H    1.049941   -2.518001   -0.550080
 H    2.739261   -2.767790    1.169189
 H    3.425649   -1.158888    0.832170
 H    3.722575   -1.558210   -4.109087
 H    3.629396   -3.816161   -2.289374
 H    0.743517   -1.371816    1.587043
 H    1.674300    1.818934   -4.033463
 H    4.200079    1.795423   -4.494605
 H    5.004156    1.310222   -2.228363
 H    3.765536    4.005854   -1.464007
 H    2.993646    1.131018   -0.751292
 H    1.431859    3.640027   -0.062768
 H    2.706890    2.992442    1.012174
 H    2.806947    3.775960   -4.601839
 H    5.663190    3.859665   -3.174343
 H    5.763421    3.069593   -0.423824
 H    1.408187    1.022371    0.988872
