61 
6mum_ligand_dft.xyz
 N    0.658708    2.621706    0.661930
 C    1.034823    1.780609   -0.378963
 N    0.009170    1.337367   -1.075156
 C   -1.087028    1.890539   -0.462592
 C   -2.462088    1.697828   -0.604150
 N   -3.313896    2.270701    0.238192
 C   -2.807144    3.044134    1.214029
 N   -1.529477    3.300033    1.475877
 C   -0.709852    2.689743    0.618600
 C    1.474460    3.219929    1.699348
 C    2.408093    1.366424   -0.602702
 O   -2.892635    0.890114   -1.579632
 C   -3.976876   -0.006521   -1.310810
 C   -3.650357   -0.888254   -0.104443
 N   -2.626694   -1.780184   -0.636661
 C   -2.681768   -1.849566   -2.101208
 C   -3.918204   -1.011187   -2.455864
 C   -1.548063   -2.293722    0.015027
 O   -0.666178   -2.875261   -0.611233
 C   -1.512043   -2.139468    1.536741
 C   -0.744216   -3.294630    2.205042
 C    0.772852   -3.147884    2.077090
 O    1.220506   -1.886936    2.541586
 C    0.644516   -0.835381    1.798275
 C   -0.871104   -0.800395    1.966360
 C    2.805852    0.162281   -1.184632
 N    4.157428    0.180225   -1.170040
 N    4.673322    1.299538   -0.622049
 C    3.621179    2.021088   -0.280955
 C    2.022371   -0.985400   -1.730570
 C    5.057760   -0.900816   -1.533198
 C    5.374826   -1.796000   -0.339705
 H   -3.536057    3.501339    1.877601
 H    0.806194    3.522238    2.507262
 H    2.198937    2.491673    2.071137
 H    2.001217    4.102580    1.326530
 H   -4.915683    0.540924   -1.205659
 H   -3.301672   -0.310268    0.750911
 H   -4.552472   -1.436355    0.201128
 H   -2.754835   -2.887865   -2.435082
 H   -1.767849   -1.419476   -2.520851
 H   -3.828906   -0.519140   -3.426034
 H   -4.828156   -1.620581   -2.452764
 H   -2.545638   -2.160446    1.901988
 H   -1.003892   -3.298916    3.270775
 H   -1.053408   -4.255748    1.781466
 H    1.278982   -3.893403    2.696923
 H    1.069705   -3.294138    1.031173
 H    1.092719    0.090184    2.171994
 H    0.901080   -0.933894    0.733849
 H   -1.280665    0.043044    1.401436
 H   -1.099593   -0.630262    3.024978
 H    3.769870    2.998090    0.156818
 H    2.254332   -1.919800   -1.208673
 H    2.233619   -1.130090   -2.796314
 H    0.955228   -0.791873   -1.627775
 H    5.963622   -0.433008   -1.923832
 H    4.591970   -1.468957   -2.342601
 H    5.837203   -1.206949    0.457027
 H    6.067131   -2.589962   -0.635829
 H    4.465618   -2.258084    0.057663
