61 
6mum_ligand_ani-2x.xyz
 N    1.004386   -3.071861   -0.427759
 C    1.467723   -2.044680    0.381138
 N    0.491432   -1.285119    0.838872
 C   -0.659777   -1.839193    0.340307
 C   -2.032120   -1.528920    0.429400
 N   -2.926987   -2.254078   -0.229237
 C   -2.481389   -3.294235   -0.959686
 N   -1.236206   -3.700836   -1.130447
 C   -0.360040   -2.942029   -0.456584
 C    1.736686   -4.072172   -1.193222
 C    2.875994   -1.854764    0.708597
 O   -2.403364   -0.495060    1.181516
 C   -3.761609   -0.009232    1.087289
 C   -3.892980    0.905443   -0.129630
 N   -3.260715    2.140918    0.333586
 C   -3.187708    2.205300    1.799041
 C   -3.939928    0.950603    2.255240
 C   -2.574672    3.059652   -0.399335
 O   -2.054724    4.022516    0.152472
 C   -2.459991    2.811987   -1.906767
 C   -2.221150    4.122068   -2.669398
 C   -0.797087    4.639469   -2.476134
 O    0.163349    3.649629   -2.797026
 C    0.035193    2.514397   -1.964536
 C   -1.306011    1.829076   -2.188250
 C    3.451922   -0.715954    1.277355
 N    4.764093   -1.013907    1.453444
 N    5.082158   -2.253323    1.047850
 C    3.954887   -2.767957    0.602190
 C    2.901411    0.628752    1.663300
 C    5.836587   -0.178710    1.974282
 C    6.693361    0.441504    0.878586
 H   -3.252181   -3.862387   -1.475390
 H    1.090511   -4.423051   -1.999083
 H    2.637053   -3.627564   -1.621550
 H    2.004310   -4.931685   -0.569547
 H   -4.449805   -0.854414    1.076818
 H   -3.400053    0.473366   -1.002230
 H   -4.951453    1.061385   -0.375836
 H   -3.632893    3.136566    2.160817
 H   -2.140594    2.189965    2.116695
 H   -3.552379    0.531280    3.184997
 H   -5.005128    1.167095    2.392353
 H   -3.407434    2.369493   -2.239398
 H   -2.381823    3.940274   -3.739821
 H   -2.938403    4.887589   -2.353709
 H   -0.602918    5.482612   -3.147669
 H   -0.666084    4.970448   -1.438656
 H    0.862755    1.845749   -2.220783
 H    0.140025    2.807995   -0.908003
 H   -1.374637    0.937522   -1.555669
 H   -1.361341    1.496724   -3.231705
 H    3.954562   -3.789362    0.239469
 H    3.349384    1.429149    1.057450
 H    3.112795    0.857293    2.716829
 H    1.819947    0.657220    1.523062
 H    6.442011   -0.822089    2.616856
 H    5.392138    0.597917    2.602826
 H    7.142165   -0.340178    0.260331
 H    7.496164    1.033482    1.328178
 H    6.097746    1.097860    0.234999
