61 
6mum_ligand_aiqm1.xyz
 N    0.830016   -2.877671   -0.558801
 C    1.256050   -1.922748    0.350801
 N    0.256310   -1.292683    0.936359
 C   -0.877515   -1.851817    0.379300
 C   -2.243084   -1.591913    0.497989
 N   -3.115058   -2.255066   -0.254527
 C   -2.639676   -3.193007   -1.098333
 N   -1.378172   -3.543212   -1.309201
 C   -0.534996   -2.836191   -0.548424
 C    1.616553   -3.732405   -1.423669
 C    2.652708   -1.634054    0.590958
 O   -2.660333   -0.646206    1.352098
 C   -3.956042   -0.064354    1.094662
 C   -3.856077    0.846560   -0.124015
 N   -3.156691    2.003759    0.417386
 C   -3.286019    2.092400    1.874750
 C   -4.192962    0.911022    2.231436
 C   -2.251580    2.804105   -0.199287
 O   -1.717318    3.719201    0.414587
 C   -1.915567    2.480496   -1.651658
 C   -1.367163    3.694204   -2.410474
 C    0.073985    4.020268   -2.023403
 O    0.920663    2.886184   -2.149599
 C    0.491725    1.857416   -1.278164
 C   -0.880242    1.337453   -1.688935
 C    3.173376   -0.436539    1.090515
 N    4.511932   -0.619858    1.155911
 N    4.903972   -1.838893    0.739727
 C    3.782208   -2.460217    0.400535
 C    2.519831    0.847258    1.498180
 C    5.520349    0.365964    1.508263
 C    6.033735    1.103655    0.279662
 H   -3.386796   -3.714034   -1.681648
 H    0.980787   -4.049280   -2.247533
 H    2.467444   -3.179172   -1.810972
 H    1.963504   -4.615634   -0.887305
 H   -4.705347   -0.846645    0.993875
 H   -3.310109    0.372452   -0.934459
 H   -4.854272    1.109187   -0.491429
 H   -3.696553    3.061338    2.158706
 H   -2.299364    2.006482    2.328854
 H   -3.953192    0.473797    3.198854
 H   -5.241633    1.210816    2.224120
 H   -2.836257    2.143860   -2.138665
 H   -1.406086    3.476208   -3.481867
 H   -1.993063    4.571454   -2.228359
 H    0.481722    4.780679   -2.690903
 H    0.110939    4.394217   -0.997332
 H    1.238590    1.062132   -1.338027
 H    0.450806    2.233326   -0.246588
 H   -1.173824    0.516865   -1.031057
 H   -0.824618    0.945525   -2.708819
 H    3.836137   -3.479325    0.056845
 H    2.819301    1.666361    0.840027
 H    2.799529    1.115506    2.518589
 H    1.441367    0.744040    1.458521
 H    6.327586   -0.171323    2.002058
 H    5.076748    1.053864    2.225523
 H    6.449449    0.396793   -0.437119
 H    6.814930    1.806402    0.569673
 H    5.234523    1.660541   -0.209109
