20 
6mvu_ligand_ani-2x.xyz
 C  -25.746108    5.613312    2.863770
 C  -26.020540    5.536254    4.224641
 C  -27.259048    5.962087    4.680200
 C  -28.183191    6.453629    3.765504
 C  -27.908246    6.521248    2.404567
 C  -26.670933    6.096434    1.944812
 C  -29.650777    8.136986    4.597751
 C  -28.490907    9.098746    4.502814
 N  -24.434582    5.164960    2.379457
 O  -24.217131    5.239891    1.182052
 O  -23.640224    4.744173    3.203244
 O  -29.432214    6.843461    4.217622
 O  -30.748245    8.431243    4.983336
 H  -25.268519    5.150198    4.901907
 H  -27.516829    5.920916    5.734521
 H  -28.661220    6.906516    1.723137
 H  -26.411987    6.135037    0.893756
 H  -28.127215    9.179533    3.473349
 H  -28.835900   10.075884    4.841254
 H  -27.654484    8.772792    5.129507
