59 
6mx3_ligand_dft.xyz
 C   -2.419628   -1.383828   -0.568876
 C   -3.767247   -1.042861   -0.559149
 C   -4.202537    0.232912   -0.191123
 C   -6.068671    1.122271    1.234721
 C   -6.607317   -0.524086   -0.553736
 C   -5.901777    1.780563   -1.187446
 C    0.727924   -0.317838    0.943608
 C    1.444546    1.003382    0.696806
 C    1.601392    1.557464   -0.566867
 C    2.279944    2.762267   -0.751395
 C    2.814735    3.431017    0.348251
 C    2.654794    2.887597    1.628456
 C    1.977468    1.693421    1.792445
 C    2.559027   -1.814627    0.161151
 C    3.897925   -2.170620    0.273469
 C    4.623856   -2.523755   -0.860093
 C    4.010669   -2.528370   -2.110928
 C    1.948630   -1.812283   -1.093830
 O    0.397995   -2.311611    3.097269
 C    0.947204   -2.617786    1.903294
 O    0.802507   -3.688947    1.373882
 C    1.723022   -1.429220    1.349249
 O    3.490190    4.605403    0.286926
 C    3.679779    5.193004   -0.980864
 C    2.671816   -2.176505   -2.227035
 C    0.507225   -1.444967   -1.257332
 O   -0.101349   -1.697938   -2.283091
 N   -0.076055   -0.795195   -0.182694
 C   -1.457163   -0.440683   -0.219341
 C   -1.867739    0.840921    0.147022
 C   -3.218821    1.161332    0.164012
 C   -5.680926    0.639785   -0.175858
 H   -2.112936   -2.382457   -0.855971
 H   -4.484889   -1.805232   -0.841071
 H   -5.910052    0.330218    1.974667
 H   -5.480867    1.992811    1.543305
 H   -7.126680    1.408804    1.261277
 H   -6.408050   -0.891558   -1.566244
 H   -7.649675   -0.188341   -0.523584
 H   -6.509199   -1.362565    0.144739
 H   -6.955734    2.083204   -1.196412
 H   -5.627609    1.461694   -2.198741
 H   -5.302302    2.662642   -0.939355
 H    0.031905   -0.177570    1.775424
 H    1.177640    1.062932   -1.435182
 H    2.379139    3.161358   -1.754092
 H    3.065684    3.424577    2.476848
 H    1.851902    1.289485    2.795265
 H    4.375528   -2.170502    1.249676
 H    5.671271   -2.794318   -0.765821
 H    4.576798   -2.807404   -2.994274
 H   -0.113794   -3.089599    3.370988
 H    2.351865   -1.042041    2.157204
 H    4.267148    4.542458   -1.641460
 H    2.722365    5.428372   -1.462967
 H    4.229357    6.118247   -0.804580
 H    2.164599   -2.179927   -3.185899
 H   -1.132696    1.594709    0.411129
 H   -3.501857    2.170086    0.452444
