34 
6n19_ligand_ani-2x.xyz
 C    7.067470  -16.495375  -33.823259
 C    7.048665  -13.698581  -33.822728
 C    8.019643  -14.397625  -34.549828
 C    8.044448  -15.793794  -34.525291
 C    8.704766  -22.349680  -37.129917
 C    8.000840  -21.240195  -36.372002
 C    8.343572  -21.259133  -34.887216
 C    7.531307  -20.259238  -34.071982
 C    7.832434  -18.804619  -34.424719
 C    6.052689  -15.796431  -33.158725
 C    6.040714  -14.413981  -33.175735
 C    7.008883  -12.199750  -33.685659
 C    8.958304  -13.657883  -35.467555
 N    7.049786  -17.901756  -33.747718
 O    8.505092  -22.351015  -38.468561
 O    9.388739  -23.196345  -36.620746
 O    8.691762  -18.488386  -35.228660
 O    8.172063  -11.580278  -33.415294
 O    5.981475  -11.579555  -33.740986
 O    8.644209  -12.685170  -36.098674
 O   10.207875  -14.163322  -35.550233
 H    8.781198  -16.355708  -35.087130
 H    6.917603  -21.366040  -36.519956
 H    8.266551  -20.271726  -36.810141
 H    9.409765  -21.046045  -34.764590
 H    8.178594  -22.269081  -34.498502
 H    7.730471  -20.399571  -33.000842
 H    6.454620  -20.435630  -34.207986
 H    5.269838  -16.336465  -32.631448
 H    5.257468  -13.855914  -32.674211
 H    6.345984  -18.282913  -33.134249
 H    7.939608  -21.608176  -38.721840
 H    8.901128  -12.216556  -33.403582
 H   10.312437  -14.874361  -34.902736
