18 
6n69_ligand_ani-2x.xyz
 C   12.025215    8.408984  -16.549820
 C   11.364330    7.185867  -16.168128
 C   10.137542    4.903593  -15.289107
 C    9.503623    3.723435  -14.822663
 C    8.973897    2.825956  -15.710529
 C    9.657422    4.193581  -17.583438
 C   10.214585    5.139899  -16.683396
 C   10.854538    6.328178  -17.109465
 N   12.557112    9.392825  -16.848967
 C   11.232181    6.850736  -14.787345
 N   10.649681    5.766289  -14.358745
 C    9.051816    3.063912  -17.105945
 H    9.461389    3.572446  -13.748698
 H    8.488806    1.922568  -15.349626
 H    9.720595    4.382260  -18.653123
 H   10.941078    6.558476  -18.169555
 H   11.635552    7.528814  -14.034603
 H    8.624538    2.337978  -17.792847
