18 
6n69_ligand_dft.xyz
 C    3.206070   -0.343598   -0.000010
 C    1.810855   -0.013702    0.000010
 C   -0.812990    0.776645   -0.000011
 C   -2.168065    1.190192   -0.000014
 C   -3.173682    0.258219   -0.000004
 C   -1.575756   -1.555645    0.000002
 C   -0.514741   -0.613973   -0.000000
 C    0.845331   -0.993597    0.000012
 N    4.336390   -0.600433   -0.000016
 C    1.404971    1.352881    0.000030
 N    0.156747    1.737081    0.000002
 C   -2.876835   -1.126574    0.000004
 H   -2.371040    2.255797   -0.000026
 H   -4.210574    0.579967    0.000006
 H   -1.339409   -2.616266   -0.000003
 H    1.120752   -2.044326    0.000009
 H    2.165384    2.130971   -0.000004
 H   -3.688005   -1.847770    0.000005
