18 
6n69_ligand_aiqm1.xyz
 C   12.023592    8.405951  -16.547720
 C   11.364982    7.187077  -16.169105
 C   10.137482    4.903061  -15.282270
 C    9.503502    3.723068  -14.820367
 C    8.973742    2.825730  -15.711289
 C    9.659051    4.196416  -17.581795
 C   10.215480    5.141217  -16.679075
 C   10.853311    6.326086  -17.111816
 N   12.556775    9.391946  -16.844045
 C   11.234325    6.854736  -14.790632
 N   10.650094    5.766762  -14.355158
 C    9.051326    3.063143  -17.107369
 H    9.456584    3.563937  -13.751766
 H    8.491222    1.927076  -15.351136
 H    9.721983    4.384302  -18.646857
 H   10.934646    6.546815  -18.169697
 H   11.637264    7.532909  -14.048350
 H    8.628540    2.345567  -17.797554
