18 
6n69_ligand_xtb.xyz
 C   12.012882    8.386026  -16.540901
 C   11.365132    7.187601  -16.172210
 C   10.138661    4.905413  -15.285864
 C    9.509120    3.733368  -14.822229
 C    8.981292    2.839483  -15.712512
 C    9.661823    4.201136  -17.577387
 C   10.216770    5.144191  -16.688084
 C   10.851838    6.323769  -17.116170
 N   12.540901    9.362100  -16.829265
 C   11.231109    6.849590  -14.798875
 N   10.649883    5.768300  -14.382326
 C    9.057604    3.073688  -17.095802
 H    9.461245    3.572725  -13.756868
 H    8.498712    1.941056  -15.357359
 H    9.724485    4.388364  -18.639910
 H   10.932965    6.543967  -18.172091
 H   11.626522    7.512858  -14.040322
 H    8.632958    2.352166  -17.777826
