45 
6n7c_ligand_xtb.xyz
 C   -8.159072  -20.577011   22.655757
 C   -3.861545  -22.824519   16.313953
 C   -8.670928  -21.199970   23.760867
 C   -8.073881  -22.368100   24.257296
 C   -3.615700  -22.758104   20.042818
 C   -6.973260  -22.895044   23.639905
 C   -6.423514  -22.276250   22.499285
 C   -5.297439  -22.794261   21.830932
 C   -4.774420  -22.190467   20.713599
 C   -3.318642  -22.965641   18.697399
 C   -2.056141  -23.588380   18.692171
 N   -2.554067  -23.269642   20.723370
 N   -4.152741  -22.673827   17.633210
 C   -7.026394  -21.095105   21.997573
 N   -6.173440  -21.954384   13.572529
 O   -2.818857  -23.263853   15.871124
 C   -4.982176  -22.397221   15.453277
 C   -6.244570  -21.931850   15.828787
 N   -6.821625  -21.724541   17.010269
 C   -8.049982  -21.281499   17.022821
 C   -8.784449  -21.009236   15.849076
 C   -8.185322  -21.221175   14.639332
 N   -6.922172  -21.681284   14.627108
 C   -5.014878  -22.384335   14.052165
 N   -1.612180  -23.750542   19.922432
 C   -5.368735  -20.982979   20.233660
 O   -4.740584  -20.410248   19.169309
 C   -5.209034  -19.176779   18.689160
 C   -6.469504  -20.465886   20.863874
 H   -8.617070  -19.675320   22.273662
 H   -9.539322  -20.795389   24.259912
 H   -8.491081  -22.846782   25.130897
 H   -6.509077  -23.795302   24.016646
 H   -4.852677  -23.707903   22.199751
 H   -1.486727  -23.904933   17.843907
 H   -2.413983  -23.256074   21.720688
 H   -5.043273  -22.254159   17.872271
 H   -8.488593  -21.131772   17.999752
 H   -9.795350  -20.644054   15.906676
 H   -8.653484  -21.047526   13.682304
 H   -4.227176  -22.675623   13.386680
 H   -4.536941  -18.905004   17.876638
 H   -6.230033  -19.257730   18.301737
 H   -5.173004  -18.403809   19.463576
 H   -6.931956  -19.554488   20.516842
