32 
6nlj_ligand_xtb.xyz
 C   -8.421235  103.425509  -40.891704
 C   -7.081346  103.621664  -42.776513
 C   -8.348164  104.354330  -43.022536
 C   -9.142113  104.223707  -41.878894
 C  -10.412985  104.804789  -41.784591
 C  -12.460501  105.194788  -40.439197
 C  -13.028069  104.656130  -39.153946
 C  -13.118448  103.284360  -38.975362
 C  -13.629518  102.761052  -37.793161
 C  -14.054380  103.621410  -36.786670
 C  -13.965782  104.988862  -36.968924
 C  -13.453681  105.508836  -38.144349
 C  -10.838008  105.535967  -42.917570
 C  -10.044447  105.653986  -44.036742
 C   -8.778929  105.065419  -44.118718
 N   -7.211833  103.105406  -41.495881
 N  -11.144808  104.645400  -40.668417
 O   -8.756768  103.089971  -39.776262
 O  -13.700329  101.411164  -37.670863
 O   -6.121293  103.473822  -43.487511
 H  -12.414839  106.291504  -40.397253
 H  -13.121078  104.914722  -41.271508
 H  -12.795758  102.600967  -39.745043
 H  -14.452082  103.217711  -35.865100
 H  -14.295747  105.653339  -36.184681
 H  -13.384801  106.578019  -38.276278
 H  -11.804793  106.014328  -42.903611
 H  -10.412650  106.222459  -44.878220
 H   -8.165760  105.164716  -44.999042
 H   -6.496775  102.552549  -41.047101
 H  -10.716365  104.119525  -39.918237
 H  -14.054414  101.175289  -36.804919
