32 
6nlj_ligand_ani-2x.xyz
 C   -8.234662  103.664280  -40.825225
 C   -6.902193  104.017053  -42.709884
 C   -8.278430  104.547838  -42.994913
 C   -9.059844  104.333094  -41.866127
 C  -10.408192  104.725063  -41.823931
 C  -12.544097  104.823166  -40.576884
 C  -13.062945  104.427364  -39.212123
 C  -13.768214  103.241693  -39.045740
 C  -14.215060  102.863149  -37.778957
 C  -13.955168  103.670781  -36.673787
 C  -13.243760  104.854312  -36.845921
 C  -12.793666  105.233485  -38.104580
 C  -10.921909  105.339469  -42.976084
 C  -10.118123  105.545943  -44.103000
 C   -8.780083  105.153156  -44.131544
 N   -6.973704  103.514063  -41.400613
 N  -11.142502  104.504690  -40.691676
 O   -8.556574  103.311155  -39.708201
 O  -14.902694  101.690642  -37.688416
 O   -5.926953  104.005770  -43.418786
 H  -12.694020  105.902942  -40.728133
 H  -13.119217  104.307863  -41.360834
 H  -13.986846  102.592401  -39.890058
 H  -14.304845  103.377185  -35.684761
 H  -13.037683  105.484248  -35.984305
 H  -12.232177  106.155932  -38.232401
 H  -11.959664  105.663743  -43.002669
 H  -10.555921  106.025462  -44.973845
 H   -8.149072  105.309298  -45.000689
 H   -6.191236  103.085286  -40.924981
 H  -10.653448  104.017849  -39.951412
 H  -15.154798  101.543327  -36.768321
