32 
6nlj_ligand_dft.xyz
 C    1.937603   -1.498133    0.423551
 C    4.199618   -1.035509    0.112900
 C    3.417649    0.220547   -0.121704
 C    2.071141   -0.076268    0.061182
 C    1.065398    0.888083   -0.082347
 C   -1.325603    1.513945    0.083470
 C   -2.661130    0.813132    0.177129
 C   -2.984415   -0.175585   -0.749688
 C   -4.215732   -0.823926   -0.680152
 C   -5.131649   -0.482060    0.316528
 C   -4.803620    0.505579    1.237911
 C   -3.573712    1.152588    1.176204
 C    1.513575    2.191173   -0.408896
 C    2.863402    2.465546   -0.589552
 C    3.856091    1.484816   -0.452841
 N    3.239982   -2.002030    0.428819
 N   -0.242661    0.553308    0.077249
 O    0.930111   -2.129456    0.677670
 O   -4.469605   -1.776950   -1.614301
 O    5.391982   -1.214866    0.054398
 H   -1.219748    2.226670    0.915001
 H   -1.289364    2.099316   -0.846069
 H   -2.285668   -0.457653   -1.531447
 H   -6.093465   -0.987176    0.372485
 H   -5.514878    0.766713    2.015640
 H   -3.321748    1.916484    1.905901
 H    0.794527    2.995722   -0.519179
 H    3.152262    3.481798   -0.841692
 H    4.908198    1.704266   -0.592462
 H    3.466408   -2.960624    0.647465
 H   -0.427754   -0.381122    0.421539
 H   -5.341614   -2.156724   -1.453956
