32 
6nlj_ligand_aiqm1.xyz
 C   -8.302156  103.616256  -40.824974
 C   -6.936669  103.952525  -42.684497
 C   -8.292080  104.521952  -42.981808
 C   -9.092475  104.312113  -41.860919
 C  -10.423956  104.727919  -41.814144
 C  -12.559749  104.880027  -40.576918
 C  -13.070644  104.475661  -39.225688
 C  -13.674986  103.232416  -39.059217
 C  -14.101223  102.832688  -37.794877
 C  -13.922419  103.665627  -36.693814
 C  -13.318458  104.907544  -36.867476
 C  -12.894884  105.318943  -38.125974
 C  -10.917755  105.377206  -42.975361
 C  -10.100778  105.575809  -44.081976
 C   -8.762359  105.152305  -44.114361
 N   -7.040560  103.441473  -41.390065
 N  -11.165317  104.508785  -40.699557
 O   -8.636224  103.258027  -39.715513
 O  -14.692599  101.604743  -37.698042
 O   -5.951289  103.921579  -43.377358
 H  -12.668520  105.963057  -40.712186
 H  -13.149594  104.396267  -41.365321
 H  -13.810334  102.561937  -39.898765
 H  -14.247384  103.346863  -35.710457
 H  -13.175649  105.551852  -36.010625
 H  -12.418852  106.281495  -38.256399
 H  -11.942688  105.720420  -42.998679
 H  -10.516020  106.075468  -44.949501
 H   -8.132714  105.308584  -44.976023
 H   -6.278920  102.988866  -40.914622
 H  -10.716119  104.015482  -39.944096
 H  -14.914325  101.437812  -36.779588
