26 
6npm_ligand_ani-2x.xyz
 C   -6.111973  -35.200227  -17.047301
 C   -4.791327  -34.985019  -17.463331
 C   -4.057406  -36.019694  -18.032081
 C   -4.630302  -37.278452  -18.192442
 C   -5.941913  -37.501133  -17.781942
 C   -6.680659  -36.470271  -17.212557
 C  -11.843698  -30.966267  -14.814479
 C  -10.343922  -31.076529  -14.843955
 C   -9.599641  -30.094170  -14.195695
 C   -7.623237  -31.100433  -14.720486
 C   -8.265963  -32.164382  -15.371703
 C   -9.659908  -32.135992  -15.429582
 C   -7.519572  -33.236081  -15.964418
 C   -6.873974  -34.132102  -16.458617
 N   -8.267389  -30.090731  -14.142115
 O  -12.441200  -30.402970  -13.937792
 O  -12.504802  -31.542259  -15.839874
 H   -4.344212  -34.002642  -17.338262
 H   -3.033690  -35.842521  -18.351535
 H   -4.054637  -38.085848  -18.637340
 H   -6.392138  -38.482660  -17.905772
 H   -7.704296  -36.644088  -16.892251
 H  -10.114065  -29.273004  -13.702945
 H   -6.536619  -31.075766  -14.662695
 H  -10.185893  -32.968651  -15.894915
 H  -11.880361  -31.808509  -16.528016
