35 
6npp_ligand_ani-2x.xyz
 C   -6.657361  -36.895077  -16.517707
 C   -5.199277  -37.762176  -18.231169
 C  -10.681940  -32.339743  -17.546429
 C  -11.183254  -33.393418  -18.261475
 C  -10.925055  -34.579674  -17.503516
 C   -6.384257  -35.585123  -16.931428
 C  -11.569918  -30.696686  -14.936385
 C  -10.096576  -30.986625  -14.752819
 C   -9.369490  -30.224580  -13.840966
 C   -8.051743  -30.535618  -13.525014
 C   -7.437412  -31.620224  -14.134121
 C   -8.132238  -32.399982  -15.058698
 C   -9.465366  -32.064976  -15.385137
 C  -10.277046  -34.193061  -16.361767
 C   -7.481972  -33.509765  -15.704036
 C   -6.992897  -34.463826  -16.264022
 C   -5.510442  -35.380627  -18.007264
 C   -4.922692  -36.463977  -18.650973
 C   -6.067174  -37.975547  -17.164648
 N  -10.125338  -32.825484  -16.381720
 O  -12.437969  -31.523239  -14.984436
 O  -11.875871  -29.377506  -15.012726
 H   -7.337275  -37.062440  -15.686796
 H   -4.738539  -38.607334  -18.735984
 H  -10.665835  -31.280826  -17.757651
 H  -11.678718  -33.332176  -19.222058
 H  -11.196755  -35.591623  -17.777145
 H   -9.859701  -29.392957  -13.337229
 H   -7.504795  -29.928130  -12.808847
 H   -6.409532  -31.877762  -13.894857
 H   -9.911424  -34.760177  -15.520448
 H   -5.293377  -34.368711  -18.337516
 H   -4.245768  -36.293606  -19.484158
 H   -6.287048  -38.987315  -16.833684
 H  -11.062545  -28.859708  -15.086973
