35 
6npp_ligand_xtb.xyz
 C   -7.111063  -36.320948  -17.758682
 C   -5.200593  -37.673414  -18.288315
 C  -11.072564  -32.651367  -17.147087
 C  -11.594774  -33.789783  -17.683602
 C  -11.029226  -34.877685  -16.982086
 C   -6.293404  -35.460732  -17.021193
 C  -11.510201  -30.770127  -14.880831
 C  -10.026952  -30.968115  -14.839568
 C   -9.248142  -30.050853  -14.137172
 C   -7.891399  -30.265705  -13.967371
 C   -7.298668  -31.387777  -14.512301
 C   -8.053057  -32.308838  -15.239735
 C   -9.438145  -32.106075  -15.399778
 C  -10.169063  -34.360905  -16.059247
 C   -7.420746  -33.414104  -15.843629
 C   -6.867820  -34.343633  -16.381790
 C   -4.925065  -35.718239  -16.924604
 C   -4.386866  -36.821720  -17.557603
 C   -6.560448  -37.420412  -18.386745
 N  -10.196190  -32.997865  -16.156219
 O  -12.305731  -31.616907  -14.595349
 O  -11.907559  -29.524890  -15.216733
 H   -8.168950  -36.112703  -17.827116
 H   -4.774745  -38.534789  -18.781241
 H  -11.232982  -31.625075  -17.414847
 H  -12.303403  -33.846434  -18.485731
 H  -11.242195  -35.916652  -17.139871
 H   -9.715307  -29.187305  -13.683694
 H   -7.299343  -29.557311  -13.408744
 H   -6.239650  -31.561455  -14.393705
 H   -9.571575  -34.850463  -15.316720
 H   -4.296856  -35.050448  -16.352975
 H   -3.327686  -37.020356  -17.481791
 H   -7.192973  -38.085210  -18.956517
 H  -11.163259  -28.941406  -15.417205
