62 
6nrf_ligand_aiqm1.xyz
 N   23.873649  -11.744465    7.104435
 N   20.391895  -14.224862    9.790207
 C   27.553422   -4.394723   12.097841
 N   20.954958  -12.471183   11.077675
 N   22.233044  -12.823624    9.106847
 C   26.673650   -5.834895    6.285714
 C   26.142245   -7.248074    6.192053
 O   25.816928   -3.313729    7.921854
 C   28.230599   -6.395238   10.867725
 C   28.175256   -5.649005   12.042065
 C   24.829717   -7.531666    6.578944
 C   26.958420   -3.838839   10.974219
 C   27.005207   -4.565566    9.780387
 C   26.524179   -4.362242    8.434661
 C   26.899181   -5.432720    7.704779
 C   25.185602   -9.888441    6.171896
 C   24.352990   -8.837116    6.569384
 O   25.033962  -12.025957    5.169165
 C   24.716205  -11.307988    6.103854
 C   24.041740  -11.323182    8.493686
 C   22.716522  -11.448330    9.216171
 C   21.213740  -13.134000    9.975982
 C   19.920607  -13.175846   11.679384
 C   19.252617  -12.922821   12.877337
 C   18.239320  -13.795131   13.256204
 C   17.889120  -14.899088   12.463042
 C   18.543771  -15.161597   11.264264
 C   19.556644  -14.284075   10.898284
 C   22.109047  -13.300783    7.739419
 C   23.425207  -13.124186    7.001567
 C   26.482738   -9.604675    5.743922
 C   26.960428   -8.299513    5.766379
 O   27.578461   -6.342646    8.494892
 C   27.638422   -5.812067    9.746065
 C   28.887248   -7.743009   10.904502
 O   29.438990   -8.136963   11.918654
 N   28.813995   -8.487790    9.774878
 H   20.477051  -14.912488    9.066484
 H   27.533727   -3.853938   13.034913
 H   27.615844   -5.766061    5.731465
 H   25.976658   -5.120529    5.846824
 H   28.630180   -6.079706   12.921642
 H   24.182035   -6.722867    6.895474
 H   26.473560   -2.872720   11.034829
 H   23.328721   -9.038019    6.860553
 H   24.791343  -11.960485    8.979151
 H   24.398042  -10.298018    8.531265
 H   22.828552  -11.221829   10.271981
 H   21.982216  -10.749346    8.793247
 H   19.520623  -12.072371   13.487907
 H   17.708202  -13.620518   14.182346
 H   17.095497  -15.558895   12.787795
 H   18.271297  -16.012186   10.651377
 H   21.300799  -12.775475    7.212243
 H   21.874268  -14.366000    7.748248
 H   23.303937  -13.366426    5.949046
 H   24.179884  -13.799488    7.420956
 H   27.104703  -10.416197    5.390042
 H   27.973889   -8.090497    5.442029
 H   29.258552   -9.387771    9.793619
 H   28.380850   -8.153398    8.932405
 H   25.780840   -2.612733    8.573822
