54 
6nrj_ligand_aiqm1.xyz
 N   26.737692   -8.176219   11.307097
 C   27.123608   -7.103945   12.033562
 O   26.902332   -6.999748   13.228703
 C   27.877643   -6.027567   11.305554
 C   26.133483   -8.817471    7.181353
 C   25.444132   -9.961874    6.803816
 C   25.619592  -10.519703    5.535781
 C   24.856695  -11.766166    5.235600
 C   28.431947   -4.997623   12.078434
 C   29.164271   -3.949522   11.520750
 C   29.370309   -3.888840   10.145994
 C   28.819487   -4.898095    9.359250
 C   28.836460   -5.131164    7.915358
 C   28.041236   -6.378986    7.753257
 C   27.780105   -6.982405    6.585494
 C   27.011774   -8.195716    6.280866
 N   25.360279  -12.568790    4.248654
 O   29.355638   -4.491340    7.023394
 O   23.837174  -12.046034    5.847651
 C   24.857922  -13.922228    4.138462
 C   25.553884  -14.928968    5.087842
 C   25.736345  -14.368945    6.454014
 N   24.781319  -14.443133    7.433080
 C   25.217808  -13.653292    8.481870
 C   24.646421  -13.300434    9.707088
 C   25.392247  -12.463281   10.524509
 C   26.665657  -12.004013   10.140180
 C   27.226068  -12.362411    8.923308
 C   26.482892  -13.194529    8.082346
 N   26.778828  -13.653434    6.803654
 C   26.481288   -9.898968    4.629491
 C   27.160700   -8.744302    4.999236
 O   27.618046   -6.827291    8.996155
 C   28.091509   -5.936778    9.932382
 H   26.196475   -8.885124   11.770378
 H   26.894972   -8.228480   10.317248
 H   25.967379   -8.395705    8.165757
 H   24.764339  -10.457639    7.484641
 H   28.265141   -5.051093   13.145111
 H   29.572147   -3.181397   12.162399
 H   29.935158   -3.090012    9.682537
 H   28.234518   -6.481597    5.734520
 H   26.323192  -12.414576    3.999092
 H   24.979680  -14.267184    3.111120
 H   23.794403  -13.866572    4.365094
 H   24.964099  -15.846274    5.118152
 H   26.543755  -15.172487    4.696886
 H   23.853204  -14.807591    7.304277
 H   23.665314  -13.651935   10.001738
 H   24.985442  -12.159489   11.479622
 H   27.222271  -11.359048   10.808938
 H   28.203288  -12.007859    8.627155
 H   26.605574  -10.292644    3.627434
 H   27.821856   -8.263075    4.287717
