54 
6nrj_ligand_xtb.xyz
 N   25.716623   -8.046291   11.076263
 C   26.238514   -7.097902   11.883070
 O   25.766704   -6.837946   12.970989
 C   27.441025   -6.382170   11.355608
 C   25.934713   -8.849720    7.063293
 C   25.074448   -9.843492    6.656333
 C   25.308861  -10.561002    5.483997
 C   24.418140  -11.727297    5.235399
 C   28.121346   -5.529913   12.227823
 C   29.237160   -4.802627   11.844339
 C   29.721758   -4.891657   10.550824
 C   29.059894   -5.725597    9.662509
 C   29.297449   -6.034392    8.250840
 C   28.209416   -6.994306    7.924766
 C   28.049069   -7.570906    6.719104
 C   27.065486   -8.538520    6.301498
 N   24.884252  -12.662867    4.357303
 O   30.156540   -5.633391    7.494885
 O   23.354079  -11.859413    5.813467
 C   24.398421  -14.017712    4.478839
 C   25.324648  -14.836252    5.411670
 C   25.781453  -13.963697    6.527737
 N   25.052100  -13.744882    7.661109
 C   25.723882  -12.794418    8.386900
 C   25.470018  -12.177797    9.599999
 C   26.390324  -11.243217   10.031363
 C   27.523045  -10.927981    9.278057
 C   27.786365  -11.543216    8.072571
 C   26.876377  -12.492467    7.623589
 N   26.865997  -13.243430    6.475161
 C   26.394547  -10.209601    4.684706
 C   27.253944   -9.210595    5.087299
 O   27.430147   -7.213961    9.035386
 C   27.936407   -6.463502   10.058734
 H   24.898337   -8.538908   11.393636
 H   26.124205   -8.293650   10.192031
 H   25.730824   -8.302067    7.967983
 H   24.208966  -10.102756    7.247405
 H   27.733653   -5.455463   13.233182
 H   29.726131   -4.160941   12.560580
 H   30.584894   -4.334380   10.222438
 H   28.794906   -7.282018    5.989028
 H   25.855500  -12.591089    4.090650
 H   24.346572  -14.482519    3.492161
 H   23.392471  -13.950584    4.899875
 H   24.795563  -15.712518    5.786413
 H   26.207792  -15.159091    4.859493
 H   24.147018  -14.129479    7.873417
 H   24.592197  -12.416792   10.181257
 H   26.237816  -10.750853   10.980223
 H   28.212981  -10.188338    9.658046
 H   28.661840  -11.304123    7.490735
 H   26.569669  -10.701965    3.739590
 H   28.102513   -8.953326    4.470429
