55 
6nss_ligand_aiqm1.xyz
 C   -9.711761   17.096048  -11.118798
 C  -10.401570   15.804626  -11.422240
 C  -12.160643   14.327368  -11.124932
 C  -11.648713   13.395012  -11.968136
 C   -9.794325   14.875922  -12.323996
 C   -6.241460   14.252220  -14.385675
 C   -5.124483   14.030692  -15.180256
 C   -7.456631   12.585027  -15.628155
 C   -9.687123   13.000010  -13.480987
 C   -9.298000   10.600898  -13.658250
 C   -7.262490    8.482599  -15.344016
 C   -6.089878    7.960149  -15.898068
 C   -7.652500    6.371154  -14.254096
 O   -8.422455    5.542904  -13.462943
 C   -9.569380    5.507658  -11.390225
 C  -10.417120    6.113143  -10.461280
 C  -10.871905    7.404887  -10.679480
 C  -10.490548    8.104734  -11.829344
 C   -9.669675    7.495551  -12.775978
 N  -11.548266   15.528233  -10.851923
 N  -10.452306   13.696135  -12.570045
 N   -8.661059   14.953895  -13.002679
 C   -8.581525   13.800209  -13.727627
 C   -7.421995   13.528810  -14.596270
 C   -5.164954   13.082137  -16.199645
 C   -6.333845   12.360963  -16.420908
 N  -10.068224   11.723714  -13.888241
 O   -8.306190   10.594996  -12.970670
 C   -9.864136    9.365208  -14.364200
 N   -9.271819    8.125321  -13.966297
 C   -8.062199    7.683665  -14.529246
 C   -5.700398    6.658115  -15.622681
 C   -6.478107    5.863763  -14.778831
 C   -9.216415    6.189542  -12.539916
 H   -8.836345   16.913057  -10.493869
 H   -9.355550   17.563117  -12.035868
 H  -10.394945   17.758640  -10.593812
 H  -13.097728   14.147126  -10.617825
 H  -12.092671   12.436875  -12.191749
 H   -6.220027   14.987076  -13.593045
 H   -4.218539   14.595706  -15.002959
 H   -8.364114   12.025057  -15.824116
 H   -7.534649    9.513254  -15.529877
 H   -5.480606    8.587305  -16.534062
 H   -9.194741    4.503349  -11.246546
 H  -10.705174    5.571140   -9.572095
 H  -11.515497    7.887092   -9.956046
 H  -10.828633    9.122324  -11.976589
 H   -4.292898   12.906175  -16.815146
 H   -6.369412   11.616944  -17.208349
 H  -10.769836   11.638749  -14.606117
 H   -9.728792    9.485641  -15.442920
 H  -10.940808    9.317618  -14.179983
 H   -4.792129    6.253899  -16.045763
 H   -6.197810    4.847446  -14.537332
