56 
6nwl_ligand_ani-2x.xyz
 C   -3.038141    1.126050   -1.708798
 C   -4.518972    1.482954   -1.737101
 C   -5.351866    0.452910   -0.994609
 C   -4.709695   -0.140221    0.200675
 C   -3.441478    0.111905    0.555007
 C   -2.910820   -0.326647    1.902107
 C   -1.569122   -1.047879    1.784586
 C   -0.531011   -0.245358    0.990715
 C   -1.127613    0.138196   -0.389730
 C   -2.469349    0.939283   -0.282892
 C    1.199088   -0.076149   -1.446266
 C   -0.106710    0.741074   -1.375772
 C    1.799966   -0.353494   -0.069966
 C    0.731533   -1.076634    0.766074
 C    1.513605   -1.620017    1.970654
 C    2.933027   -1.932204    1.406781
 C    2.921058   -1.445288   -0.062013
 C    2.316708    0.923707    0.607004
 C   -2.322658    2.310361    0.405956
 C    4.247769   -0.941790   -0.613196
 C    5.373129   -0.433334    0.268652
 O   -6.481331    0.156729   -1.334285
 O    0.143813    2.097818   -1.032106
 O    2.525847   -2.538711   -0.870575
 O    4.424943   -0.957795   -1.821121
 O    6.398242    0.114052   -0.498486
 H   -2.893402    0.194038   -2.272276
 H   -2.457489    1.904020   -2.220615
 H   -4.690556    2.462420   -1.266941
 H   -4.897790    1.552732   -2.759960
 H   -5.338663   -0.784755    0.810502
 H   -3.647352   -0.965603    2.402831
 H   -2.792258    0.564866    2.534262
 H   -1.187512   -1.285334    2.786167
 H   -1.731378   -2.007593    1.272548
 H   -0.275571    0.663543    1.555072
 H   -1.417600   -0.826791   -0.837682
 H    0.964597   -1.030142   -1.934658
 H    1.930951    0.434191   -2.090089
 H   -0.550455    0.715147   -2.383274
 H    0.419845   -1.949531    0.172502
 H    1.039344   -2.507874    2.403562
 H    1.578019   -0.867653    2.766466
 H    3.162135   -3.000857    1.407837
 H    3.699696   -1.430047    2.006685
 H    2.795419    0.713819    1.569796
 H    3.055963    1.415396   -0.034765
 H    1.513854    1.640042    0.785288
 H   -3.315064    2.728837    0.607257
 H   -1.809775    2.211620    1.366343
 H   -1.756773    3.010884   -0.209923
 H    5.733516   -1.277444    0.878880
 H    4.978228    0.316413    0.968232
 H    0.911073    2.385703   -1.541577
 H    2.835086   -2.316294   -1.762751
 H    6.193953   -0.122873   -1.418216
