56 
6nwl_ligand_aiqm1.xyz
 C   -3.007490    1.160272   -1.693341
 C   -4.494466    1.500475   -1.711198
 C   -5.303686    0.419620   -1.028215
 C   -4.699156   -0.150220    0.189065
 C   -3.431430    0.104876    0.565791
 C   -2.904115   -0.367192    1.899689
 C   -1.556864   -1.065553    1.776489
 C   -0.532434   -0.239084    0.990519
 C   -1.124053    0.140750   -0.382722
 C   -2.454211    0.945267   -0.269073
 C    1.202492   -0.051931   -1.444377
 C   -0.107754    0.744387   -1.368123
 C    1.792962   -0.335770   -0.066176
 C    0.726732   -1.063432    0.760240
 C    1.489893   -1.630155    1.968509
 C    2.926802   -1.881962    1.432685
 C    2.895691   -1.444171   -0.046211
 C    2.328541    0.946992    0.599870
 C   -2.330658    2.309456    0.450486
 C    4.234360   -0.998099   -0.624371
 C    5.336717   -0.419187    0.236778
 O   -6.399029    0.076371   -1.428939
 O    0.128106    2.113235   -1.040653
 O    2.464654   -2.558830   -0.815297
 O    4.439178   -1.128247   -1.818617
 O    6.396486    0.048585   -0.547180
 H   -2.848814    0.243586   -2.274268
 H   -2.430517    1.947016   -2.182605
 H   -4.671680    2.441474   -1.178665
 H   -4.871815    1.628586   -2.724651
 H   -5.344277   -0.772327    0.800215
 H   -3.634834   -1.024278    2.371093
 H   -2.806533    0.505435    2.550007
 H   -1.174094   -1.302139    2.772952
 H   -1.698036   -2.018662    1.254994
 H   -0.289941    0.675159    1.542021
 H   -1.399590   -0.811468   -0.860626
 H    0.995212   -1.002458   -1.934566
 H    1.913739    0.491945   -2.074701
 H   -0.546704    0.708147   -2.372628
 H    0.424295   -1.925843    0.148048
 H    1.033587   -2.548234    2.334230
 H    1.502571   -0.914729    2.793978
 H    3.217541   -2.929556    1.489862
 H    3.656133   -1.291158    1.987845
 H    2.828716    0.745688    1.548319
 H    3.044507    1.442642   -0.062790
 H    1.535000    1.661340    0.792763
 H   -3.319339    2.764801    0.555623
 H   -1.911928    2.202822    1.453172
 H   -1.698667    2.989405   -0.112423
 H    5.676203   -1.202453    0.924637
 H    4.944016    0.392035    0.852896
 H    0.767063    2.454818   -1.669001
 H    2.876562   -2.468259   -1.683788
 H    6.214354   -0.259387   -1.444772
