45 
6ny4_ligand_aiqm1.xyz
 O   -3.572417   -2.766557    0.456388
 C   -2.538819   -3.427583    0.372178
 N   -2.598760   -4.785506    0.297047
 C   -1.189187   -2.823405    0.393841
 C   -0.073125   -3.597470    0.825541
 N    1.161306   -3.191745    0.934780
 C   -0.973907   -1.487224    0.067211
 N   -1.968187   -0.641439   -0.364416
 C   -2.151003    0.675002    0.286934
 C   -2.835622    1.597567   -0.721113
 C   -2.999757    3.012852   -0.219214
 O   -2.036250    1.669151   -1.898278
 C   -2.909736    0.489870    1.603199
 O   -4.193654   -0.067968    1.411801
 C    0.372417   -1.027992    0.101771
 C    1.018284    0.153796   -0.250164
 C    2.397451   -0.014046   -0.003926
 C    2.568925   -1.305547    0.487675
 N    1.356634   -1.908804    0.537413
 C    3.456498    0.980285   -0.219338
 C    3.244650    2.079689   -1.063110
 C    4.246012    3.024759   -1.265998
 C    5.477146    2.892092   -0.629434
 C    5.699324    1.805976    0.212779
 C    4.699719    0.859023    0.416355
 H   -3.521710   -5.164475    0.170485
 H   -1.836647   -5.301066   -0.101637
 H   -0.227425   -4.614603    1.163259
 H   -2.858704   -1.122922   -0.412270
 H   -1.176706    1.093072    0.530840
 H   -3.816197    1.169930   -0.959142
 H   -2.036861    3.422884    0.094459
 H   -3.395524    3.633295   -1.020494
 H   -3.695435    3.051577    0.617793
 H   -1.775417    0.760486   -2.089375
 H   -3.053481    1.456233    2.084301
 H   -2.297535   -0.135831    2.264351
 H   -4.096395   -1.012809    1.236407
 H    0.544817    1.028818   -0.661225
 H    3.436189   -1.863213    0.786264
 H    2.296210    2.191583   -1.571982
 H    4.062301    3.864203   -1.923951
 H    6.254857    3.627175   -0.787457
 H    6.651672    1.694188    0.715106
 H    4.883949    0.026601    1.083849
