56 
6nyh_ligand_dft.xyz
 C    4.763980    1.572054    0.651704
 C    6.112311   -0.232234    0.955568
 C    1.601432   -0.294593   -0.786320
 C    5.503935   -0.930784   -0.099568
 C    4.489485   -0.318346   -0.806682
 C    3.792294   -0.974585   -1.967438
 C    2.331677   -1.343242   -1.653979
 C    1.818209    1.130732   -1.294001
 N    3.063034    1.667436   -1.095326
 C    4.096984    0.976070   -0.404912
 C    3.280518    3.045525   -1.519757
 N    5.766340    0.991002    1.321912
 O    0.926385    1.753761   -1.851640
 N    0.181238   -0.530991   -0.754167
 C   -0.345203   -1.509166    0.022344
 O    0.325757   -2.281412    0.688348
 C   -1.840996   -1.564705   -0.006478
 N   -2.559772   -2.524231    0.644788
 C   -3.793297   -2.186223    0.337556
 N   -3.801132   -1.099704   -0.453167
 N   -2.556680   -0.664927   -0.678519
 C   -5.105044   -0.529264   -0.736304
 C   -6.007527   -1.746459   -0.352953
 C   -5.192742   -2.601757    0.656592
 C   -5.392107    0.717538    0.076773
 C   -6.351909    1.618408   -0.385696
 C   -6.688613    2.739653    0.364941
 C   -6.063026    2.972439    1.586829
 C   -5.100435    2.080592    2.049832
 C   -4.765398    0.957339    1.299357
 O    7.099963   -0.866853    1.607352
 C    7.710149   -0.171887    2.685997
 H    4.488247    2.572687    0.978232
 H    1.988102   -0.375339    0.236379
 H    5.847552   -1.929072   -0.347854
 H    4.340880   -1.868169   -2.278464
 H    3.811608   -0.274020   -2.811594
 H    2.276866   -2.290140   -1.109913
 H    1.778867   -1.466151   -2.590828
 H    2.918860    3.759721   -0.771561
 H    4.348932    3.199567   -1.680419
 H    2.735128    3.220752   -2.447868
 H   -0.412100    0.125552   -1.248510
 H   -5.185905   -0.302157   -1.802474
 H   -6.206570   -2.335972   -1.252607
 H   -6.962838   -1.411214    0.054144
 H   -5.357318   -3.673104    0.525753
 H   -5.433230   -2.350014    1.694955
 H   -6.836885    1.443753   -1.343573
 H   -7.433426    3.436223   -0.008091
 H   -6.319787    3.850408    2.171821
 H   -4.602120    2.260130    2.997608
 H   -4.000067    0.277635    1.663409
 H    8.179769    0.753925    2.341149
 H    6.976865    0.074309    3.459148
 H    8.462487   -0.856006    3.079597
