27 
6nzg_ligand_aiqm1.xyz
 C    0.581132   -1.124302   -0.832900
 C   -0.425175   -1.170941    0.311631
 C   -0.929651    0.225050    0.723826
 C    0.276428    1.172591    1.028726
 C    1.268345    1.195380   -0.138116
 C    1.759042   -0.214500   -0.500908
 C   -1.906869    0.814509   -0.272210
 N   -1.608553   -2.032446   -0.131757
 O    0.864682    0.798129    2.245639
 O    0.607816    1.721919   -1.279490
 O    2.466755   -0.778847    0.605355
 O   -2.157388    2.091151   -0.083565
 O   -2.463715    0.144936   -1.130613
 H    0.108787   -0.747464   -1.738826
 H    0.957528   -2.127710   -1.030744
 H    0.025870   -1.643787    1.177119
 H   -1.477355    0.135865    1.666622
 H   -0.132280    2.171705    1.160275
 H    2.120132    1.800303    0.160073
 H    2.400460   -0.149327   -1.373092
 H   -2.163797   -1.376002   -0.750354
 H   -2.167625   -2.336429    0.661337
 H   -1.287375   -2.862761   -0.624920
 H    1.592133    0.188762    2.074121
 H    1.089306    2.474522   -1.616267
 H    3.406505   -0.737012    0.437386
 H   -2.804841    2.366807   -0.748450
