53 
6nzp_ligand_ani-2x.xyz
 C    9.987824   -3.282060   30.914637
 C   17.254795   -7.497316   22.582572
 C   17.214136   -5.134511   23.480655
 C   15.451698   -2.210834   26.162334
 C   16.227759   -5.564479   25.278686
 C    7.511681   -3.708334   30.482935
 C    7.956761   -4.713033   31.485128
 C   15.584247   -5.428484   26.598215
 C   15.592903   -4.234650   27.325914
 C   14.622431   -1.212815   30.916647
 N   13.844756   -0.667911   31.840657
 N   12.602498   -1.064081   32.025115
 C   12.126999   -2.029932   31.239262
 C   12.866310   -2.681492   30.257019
 C   14.188100   -2.304292   30.115714
 N   10.793941   -2.340030   31.507263
 N   15.048777   -2.899913   29.216997
 C   15.994360   -0.595789   30.774693
 N   16.283398    0.337801   31.699241
 O   16.778220   -0.928254   29.883615
 C   17.534631    1.060526   31.711979
 C   14.940628   -4.135125   28.569152
 C   14.314932   -5.256590   29.102020
 C   14.318352   -6.455102   28.389807
 C   14.939977   -6.543315   27.153455
 O   16.261431   -3.116451   26.909512
 C    8.598818   -3.347122   31.465676
 O   10.342741   -4.021986   30.011023
 N   16.316953   -6.741506   24.679162
 N   16.954897   -6.447544   23.530996
 N   16.765090   -4.537006   24.564246
 H   17.759589   -7.059492   21.719277
 H   17.904858   -8.241078   23.049548
 H   16.327413   -7.977014   22.260871
 H   17.723608   -4.675080   22.644433
 H   15.106761   -2.674805   25.232900
 H   14.593939   -1.874025   26.760186
 H   16.092758   -1.357220   25.929668
 H    6.542555   -3.234816   30.607397
 H    7.838067   -3.856846   29.457890
 H    8.578097   -5.527227   31.124112
 H    7.302530   -4.950349   32.318537
 H   12.391950   -3.434225   29.637082
 H   10.406758   -1.778173   32.252879
 H   15.884483   -2.357596   29.002292
 H   15.548116    0.555961   32.357755
 H   18.216456    0.567775   31.016924
 H   17.397963    2.101121   31.395599
 H   17.968620    1.047915   32.716531
 H   13.830685   -5.197022   30.072241
 H   13.823124   -7.324242   28.812200
 H   14.942475   -7.475220   26.595348
 H    8.356350   -2.654613   32.267403
