53 
6nzp_ligand_aiqm1.xyz
 C    9.935657   -3.306883   31.063661
 C   17.777932   -7.337329   22.717668
 C   16.927794   -5.042632   23.314211
 C   15.746702   -2.135760   26.323670
 C   16.109150   -5.529533   25.181379
 C    7.462881   -3.747236   30.675534
 C    7.886216   -4.609323   31.813178
 C   15.421248   -5.431538   26.478163
 C   15.511420   -4.284396   27.272335
 C   14.603132   -1.296900   30.856589
 N   13.822677   -0.653711   31.716796
 N   12.576052   -1.026286   31.922857
 C   12.099047   -2.068456   31.220270
 C   12.828272   -2.804218   30.302799
 C   14.163360   -2.428967   30.106448
 N   10.761821   -2.310089   31.526407
 N   15.016703   -3.043289   29.253401
 C   15.980902   -0.727445   30.704166
 N   16.274556    0.271766   31.551638
 O   16.777836   -1.142193   29.862643
 C   17.551617    0.950586   31.490015
 C   14.828025   -4.213486   28.500664
 C   14.092864   -5.317570   28.941030
 C   14.004751   -6.459334   28.144361
 C   14.662266   -6.519234   26.928091
 O   16.361280   -3.262838   26.957759
 C    8.550649   -3.265995   31.609570
 O   10.289106   -4.164819   30.273322
 N   16.590491   -6.689123   24.735489
 N   17.115278   -6.349982   23.541087
 N   16.288758   -4.483209   24.325666
 H   18.119220   -6.851693   21.806355
 H   18.625234   -7.750630   23.257365
 H   17.081264   -8.134971   22.474441
 H   17.267100   -4.550807   22.418257
 H   15.488767   -2.374925   25.291959
 H   14.853844   -1.819256   26.873052
 H   16.492030   -1.344562   26.351726
 H    6.507976   -3.248613   30.738497
 H    7.791321   -4.033342   29.687236
 H    8.496659   -5.470104   31.582812
 H    7.222740   -4.704256   32.658854
 H   12.380315   -3.614339   29.757122
 H   10.386258   -1.662825   32.201682
 H   15.896659   -2.559813   29.090810
 H   15.535510    0.579185   32.161925
 H   18.363387    0.230926   31.571288
 H   17.672122    1.481141   30.545284
 H   17.615924    1.657664   32.312807
 H   13.602002   -5.295439   29.904570
 H   13.424307   -7.302989   28.492985
 H   14.608566   -7.407757   26.313494
 H    8.307550   -2.471069   32.302013
