56 
6o1g_ligand_ani-2x.xyz
 C  -49.094736   18.939669   36.113282
 C  -48.766711   17.466737   36.209171
 C  -49.079815   15.336041   37.278792
 N  -49.639775   14.546713   38.263792
 C  -47.608850   15.470172   35.525863
 C  -47.857908   16.835974   35.344562
 C  -47.177025   17.621389   34.245575
 C  -48.020332   19.377875   32.734802
 C  -48.948192   19.691337   31.626286
 C  -49.048899   20.963997   31.016749
 C  -51.543838   19.417488   29.119772
 C  -52.897390   19.788536   29.685748
 C  -53.718571   18.833285   30.282483
 C  -55.378302   20.515474   30.777098
 C  -56.724133   20.901052   31.347257
 C  -59.498429   18.996047   30.011457
 C  -59.096524   19.886760   28.990409
 C  -54.559697   21.470300   30.179000
 C  -49.878768   18.921360   30.944075
 C  -49.381930   16.700623   37.187790
 N  -48.206192   14.733786   36.467871
 C  -46.629982   14.724555   34.654184
 N  -48.108775   18.116632   33.246860
 O  -47.240390   20.215792   33.172504
 N  -49.957969   20.980375   30.057688
 N  -50.441893   19.727752   30.017414
 C  -54.947799   19.191469   30.820325
 N  -57.833894   20.282213   30.637943
 C  -58.653601   19.286894   31.057341
 N  -58.088678   20.656824   29.377649
 C  -53.330097   21.112762   29.639066
 H  -48.204649   19.552641   35.938125
 H  -49.791502   19.138575   35.292692
 H  -49.562599   19.282641   37.039175
 H  -50.551801   14.820528   38.598876
 H  -49.540098   13.557078   38.086953
 H  -46.390967   17.028507   33.760273
 H  -46.683914   18.508453   34.649723
 H  -48.486162   21.855491   31.260826
 H  -51.348797   19.979998   28.201565
 H  -51.495108   18.349107   28.885401
 H  -53.396258   17.794282   30.323964
 H  -56.861084   21.984589   31.285527
 H  -56.806881   20.603356   32.397510
 H  -60.286427   18.254592   29.989010
 H  -59.493447   20.002590   27.986934
 H  -54.891136   22.506415   30.129196
 H  -50.174540   17.880195   31.007729
 H  -50.079638   17.157654   37.885944
 H  -46.913453   14.777238   33.596803
 H  -45.617679   15.134060   34.749827
 H  -46.615602   13.677729   34.964595
 H  -48.741494   17.457831   32.820406
 H  -55.579826   18.431746   31.274606
 H  -58.572797   18.875500   32.055828
 H  -52.691543   21.868821   29.185303
