56 
6o1g_ligand_aiqm1.xyz
 C  -48.985963   19.244191   35.737516
 C  -49.195376   17.760500   35.869493
 C  -50.302501   15.902291   36.916491
 N  -51.257557   15.387892   37.782892
 C  -48.773300   15.471338   35.259044
 C  -48.509315   16.831479   35.064297
 C  -47.526385   17.301268   34.017708
 C  -47.876107   19.268355   32.572417
 C  -48.675503   19.837945   31.473834
 C  -48.568308   21.161885   31.001622
 C  -51.170418   20.175880   28.871731
 C  -52.521761   20.303120   29.536054
 C  -53.625003   19.625107   29.017141
 C  -55.049318   20.566498   30.728824
 C  -56.412221   20.736409   31.360063
 C  -58.008611   17.495605   31.484299
 C  -58.638398   18.193720   30.437337
 C  -53.942145   21.230529   31.257531
 C  -49.672665   19.280205   30.686456
 C  -50.096297   17.280942   36.808990
 N  -49.648115   15.015167   36.168859
 C  -48.069678   14.402515   34.463975
 N  -48.174676   17.988741   32.910717
 O  -47.008867   19.923068   33.135184
 N  -49.424654   21.401277   30.014091
 N  -50.076743   20.236806   29.829345
 C  -54.880053   19.755735   29.603994
 N  -57.217715   19.532755   31.268256
 C  -57.092704   18.397442   31.988976
 N  -58.147624   19.426133   30.303469
 C  -52.687847   21.104786   30.667666
 H  -47.933789   19.507226   35.648363
 H  -49.477531   19.635427   34.843746
 H  -49.402249   19.761578   36.602738
 H  -51.420020   15.935799   38.612064
 H  -51.113447   14.408101   37.976042
 H  -46.961107   16.453659   33.622678
 H  -46.806592   17.999369   34.435341
 H  -47.902603   21.929325   31.355515
 H  -51.002222   20.995356   28.175112
 H  -51.102790   19.234456   28.325337
 H  -53.508245   18.991374   28.145166
 H  -56.975111   21.518400   30.852063
 H  -56.309671   21.011462   32.410387
 H  -58.188009   16.491046   31.826125
 H  -59.416573   17.860910   29.770496
 H  -54.056207   21.854882   32.136400
 H  -50.125890   18.303629   30.653838
 H  -50.643169   17.965807   37.447751
 H  -48.175402   14.563234   33.388867
 H  -47.000717   14.384517   34.690162
 H  -48.496115   13.435142   34.720826
 H  -48.949883   17.540845   32.455702
 H  -55.732215   19.226299   29.200425
 H  -56.369547   18.322468   32.783416
 H  -51.831568   21.619608   31.082769
