52 
6o8u_ligand_xtb.xyz
 C   36.408891    7.936993   21.426792
 C   37.083435    7.806175   20.234717
 C   37.453193    6.532266   19.810258
 C   37.110522    5.398647   20.570930
 C   36.448157    5.545021   21.785994
 C   36.110780    6.819322   22.200774
 C   37.729663    3.066459   20.996372
 C   38.473328    1.957997   20.247589
 C   35.894585    9.149619   22.139646
 C   35.959464    9.050159   24.686865
 C   35.264166    8.547652   23.422398
 O   35.461126    7.117499   23.351108
 N   37.491396    4.139475   20.051800
 O   37.712982    1.470351   19.165771
 C   37.398220    2.507490   18.263453
 C   36.660857    3.652571   18.958712
 N   38.217562    6.320357   18.658237
 C   38.432545    7.177592   17.626420
 O   37.914224    8.272006   17.500245
 C   39.378368    6.646835   16.627326
 C   39.755041    7.285801   15.437016
 N   40.644213    6.591364   14.743496
 N   40.876337    5.497601   15.448804
 C   40.121981    5.464206   16.630900
 N   40.210452    4.445592   17.483181
 C   41.034410    3.474394   17.190425
 C   41.820815    3.450839   16.019818
 C   41.718969    4.495157   15.145068
 C   33.759769    8.806760   23.490305
 H   37.331524    8.664339   19.633584
 H   36.187458    4.693512   22.392004
 H   38.344285    3.440587   21.816378
 H   36.793855    2.648739   21.402436
 H   38.658127    1.102442   20.899425
 H   39.430803    2.358381   19.881705
 H   35.153202    9.682454   21.542038
 H   36.698863    9.847176   22.379769
 H   37.023928    8.831958   24.636685
 H   35.819034   10.122729   24.791174
 H   35.545838    8.550528   25.559168
 H   36.773951    2.057552   17.489506
 H   38.320655    2.900391   17.811368
 H   36.471466    4.459187   18.249924
 H   35.693265    3.282883   19.338182
 H   38.678494    5.415371   18.632250
 H   39.399526    8.229517   15.074779
 H   41.085264    2.662652   17.902602
 H   42.483524    2.626485   15.820935
 H   42.268740    4.580522   14.220069
 H   33.565691    9.873304   23.566614
 H   33.276057    8.418336   22.596849
 H   33.337203    8.305051   24.357138
