53 
6o95_ligand_xtb.xyz
 C   -2.180657   -1.842941    0.471844
 C   -0.838836   -1.760309    0.766352
 C   -0.151953   -0.592995    0.442008
 C   -0.828434    0.496992   -0.138553
 C   -2.180600    0.393498   -0.452633
 C   -2.835426   -0.783103   -0.146090
 C    0.241432    2.466632    0.771213
 C    1.361767    3.441042    0.405718
 C   -3.173208   -2.942538    0.698239
 C   -5.641868   -2.329435    0.992367
 C   -4.453228   -2.378721    0.038578
 O   -4.151184   -1.027009   -0.382506
 N   -0.068092    1.658410   -0.400743
 O    1.005728    4.250567   -0.692686
 C    0.660003    3.461853   -1.807981
 C   -0.500702    2.517983   -1.484538
 N    1.228346   -0.464931    0.621040
 C    2.046465   -1.227650    1.394424
 O    1.680339   -2.117967    2.138986
 C    3.468158   -0.864787    1.255208
 C    4.534179   -1.443509    1.959672
 N    5.708896   -0.942920    1.609678
 N    5.452989   -0.040282    0.678163
 C    4.080652    0.063138    0.409266
 N    3.612287    0.916337   -0.498879
 C    4.475953    1.653482   -1.146108
 C    5.867233    1.594284   -0.922974
 C    6.340293    0.722825    0.016788
 C   -4.814618   -3.153780   -1.243833
 O   -5.864873   -2.543429   -1.941757
 H   -0.316329   -2.577824    1.233028
 H   -2.716569    1.208774   -0.909267
 H   -0.644445    3.038556    1.094832
 H    0.559175    1.823207    1.591992
 H    1.566539    4.123530    1.232325
 H    2.269337    2.867498    0.167156
 H   -3.323520   -3.125756    1.763771
 H   -2.864564   -3.879906    0.232826
 H   -5.846394   -3.324511    1.377809
 H   -5.425027   -1.658453    1.820069
 H   -6.521343   -1.967989    0.465216
 H    1.526246    2.862150   -2.125656
 H    0.385929    4.159697   -2.600947
 H   -1.380805    3.123954   -1.213937
 H   -0.736808    1.905501   -2.355919
 H    1.648591    0.277188    0.068816
 H    4.469669   -2.207977    2.707750
 H    4.065622    2.334921   -1.878199
 H    6.539081    2.224253   -1.479757
 H    7.381496    0.596262    0.271703
 H   -3.916610   -3.218022   -1.878840
 H   -5.145695   -4.163949   -0.994503
 H   -5.655020   -1.601843   -2.000432
