50 
6ohd_ligand_aiqm1.xyz
 C    2.361768    0.705979  -16.727188
 C    2.869108   -1.788822  -18.922507
 C    2.616927    0.319642  -20.064329
 C   -0.709398    3.670802  -11.496540
 C    3.329854    0.353716  -17.662277
 C    2.692503    1.404163  -15.567704
 C    2.214295   -1.558031  -21.229449
 C    1.944388   -3.728848  -21.862799
 C    5.751998    0.314700  -18.410571
 C    0.254144   -1.013705  -23.509249
 C    1.502901   -1.889117  -23.645223
 C    4.026534    1.730678  -15.326580
 C    4.676598    0.690940  -17.426823
 C    2.502580   -2.367820  -20.113758
 C    0.928869    3.307643  -12.858306
 C    1.578558    1.733604  -14.634056
 C    2.677379   -1.085434  -24.210514
 C    1.194843   -3.037125  -24.596503
 C    5.001493    1.371163  -16.250966
 C   -0.324224    2.780329  -12.441686
 C    2.930142   -0.379591  -18.900344
 N    2.259373   -0.242362  -21.236696
 N    1.251803    4.405505  -12.216847
 N    2.336952   -3.668356  -20.528404
 N    1.880291   -2.394633  -22.291459
 N    1.810148    2.808797  -13.805795
 O    1.723621   -4.756584  -22.467741
 O    0.537111    1.104504  -14.621317
 O    0.199774    4.643195  -11.338410
 H    1.325096    0.436293  -16.885813
 H    3.098457   -2.364350  -18.034631
 H    2.649650    1.402583  -20.054960
 H   -1.583001    3.739342  -10.869695
 H    5.848472   -0.770449  -18.484156
 H    5.511692    0.681082  -19.408908
 H    6.714706    0.726188  -18.108538
 H    0.445545   -0.155439  -22.867406
 H   -0.042420   -0.656647  -24.498052
 H   -0.566064   -1.602200  -23.092324
 H    4.324678    2.223867  -14.409083
 H    2.418640   -0.729203  -25.210191
 H    2.905672   -0.228449  -23.579077
 H    3.559774   -1.724811  -24.287503
 H    0.353173   -3.627384  -24.241650
 H    0.934551   -2.605047  -25.564755
 H    2.059923   -3.683862  -24.725488
 H    6.037849    1.619950  -16.055408
 H   -0.829663    1.903623  -12.801241
 H    2.428558   -4.502891  -19.981573
 H    2.634878    3.362671  -13.961506
