47 
6ooz_ligand_dft.xyz
 C   -3.134021    0.845569   -1.698690
 C   -4.518687    0.904189   -1.650314
 C    0.870398   -3.050580    0.046455
 C   -5.245701    0.315798   -0.599594
 C   -4.605739   -0.346915    0.434937
 C   -3.210775   -0.414082    0.402550
 N   -2.327568   -0.996488    1.292983
 C    1.864139   -3.612935   -0.744673
 C    3.351983   -1.979137   -0.199731
 C   -0.042870    0.285726   -1.236878
 C    3.042088    2.399197   -0.671007
 C    0.907085    1.306125   -0.644958
 C    2.159480    1.492424   -1.253268
 C    2.703917    3.109841    0.476876
 C    0.566907    2.038117    0.488041
 C    1.053061    3.737224    2.289584
 O   -0.321710   -2.085570    2.595219
 C    0.087272   -1.203434    1.584234
 C    1.149644   -1.870842    0.733982
 N    3.089099   -3.093509   -0.883696
 C    2.425804   -1.333397    0.616232
 C   -1.138431   -0.776394    0.797007
 N   -1.159826   -0.073965   -0.382487
 C   -2.497287    0.176189   -0.653918
 C    2.551801    0.722123   -2.488276
 C    1.454219    2.946610    1.069878
 H   -2.584791    1.309509   -2.511984
 H   -5.053430    1.418495   -2.442931
 H   -0.105465   -3.518608    0.131528
 H   -6.328902    0.387592   -0.602500
 H   -5.156454   -0.802525    1.251038
 H    1.670369   -4.528562   -1.299085
 H    4.354221   -1.571223   -0.314750
 H    0.501457   -0.627321   -1.496173
 H   -0.468332    0.662612   -2.172410
 H    4.019633    2.548573   -1.122789
 H    3.420761    3.802652    0.910459
 H   -0.412657    1.897308    0.939199
 H    0.496148    4.638428    2.006700
 H    0.409667    3.149086    2.951478
 H    1.928514    4.056949    2.862707
 H   -1.288637   -1.983067    2.662010
 H    0.526247   -0.291704    2.022008
 H    2.694288   -0.416461    1.132472
 H    1.814196    0.836715   -3.291480
 H    2.644108   -0.351837   -2.282040
 H    3.515061    1.067187   -2.873627
