69 
6p86_ligand_ani-2x.xyz
 C   -0.041615    1.193750   -2.047338
 C   -1.489761    0.507345   -0.225952
 C   -1.496610   -0.714758   -2.411328
 C   -1.774175    1.890479    1.736832
 C   -0.536583   -1.908126   -2.263936
 C   -2.454904    0.861548    2.370035
 C   -1.405784    3.670111   -0.894424
 C    1.836180   -2.396973   -2.458054
 C    2.516594   -1.487696   -1.449043
 C    3.659964    0.309945    0.413816
 C    3.206317   -0.348296   -1.878546
 C    2.388612   -1.699501   -0.077363
 C    1.345886    3.284630   -1.711203
 C    3.782887    0.523386   -0.963738
 C    2.950762   -0.814099    0.837324
 C   -1.731478   -3.279948    1.695166
 C   -3.718620   -3.788491    2.998299
 C    4.255695    1.278841    1.411525
 C   -0.620027    4.804695   -1.534712
 C   -1.532679   -4.604479    2.430877
 C   -2.966201   -5.079814    2.677194
 C    0.442674    4.247640   -2.478921
 C    3.568214    2.648781    1.421704
 C   -1.242720    1.712811    0.462861
 C    0.534200    2.187529   -1.036110
 C   -3.312129   -1.458009    2.497279
 C   -2.136846   -0.540251    0.429374
 C   -2.602148   -0.376574    1.733611
 N   -1.059124    0.403794   -1.570314
 N   -2.982626   -2.760406    2.256334
 N    0.622403   -1.778633   -2.976770
 N   -0.508814    2.751013   -0.173310
 O    0.402702    1.074906   -3.185580
 O   -4.158728   -1.178764    3.338053
 O   -0.777282   -2.864887   -1.541969
 H   -1.519137   -0.360820   -3.443232
 H   -2.506272   -1.002010   -2.120205
 H   -1.634300    2.855285    2.216277
 H   -2.878873    0.999143    3.358873
 H   -2.124961    4.061300   -0.166785
 H   -1.981320    3.108701   -1.649903
 H    2.497721   -2.612140   -3.305184
 H    1.543598   -3.345943   -2.002406
 H    3.292085   -0.136302   -2.943186
 H    1.826204   -2.560270    0.280437
 H    1.883569    3.835354   -0.927040
 H    2.090971    2.824705   -2.370306
 H    4.332329    1.390501   -1.327587
 H    2.837826   -0.995721    1.904913
 H   -0.913609   -2.571667    1.856602
 H   -1.828110   -3.436575    0.613386
 H   -4.763471   -3.804053    2.676640
 H   -3.709537   -3.546954    4.067269
 H    4.205937    0.835993    2.412804
 H    5.322612    1.417885    1.190751
 H   -0.138864    5.385000   -0.737313
 H   -1.306929    5.476570   -2.063209
 H   -1.017847   -4.428423    3.382688
 H   -0.936303   -5.313621    1.850575
 H   -3.377504   -5.534886    1.767845
 H   -3.041774   -5.817311    3.481239
 H    1.034736    5.056942   -2.918358
 H   -0.035007    3.704594   -3.304058
 H    3.650867    3.135391    0.442125
 H    4.024288    3.311520    2.164987
 H    2.500656    2.559382    1.658762
 H    1.203056    1.596186   -0.393766
 H   -2.246346   -1.492114   -0.076576
 H    0.749171   -0.867142   -3.408735
