43 
6p88_ligand_ani-2x.xyz
 C  -10.788049   29.987701   14.680970
 C  -14.319728   27.148719   17.650677
 C   -9.793553   30.475619   13.695597
 C  -13.763357   29.581270   17.881302
 C  -12.223037   30.849702   16.545461
 C   -9.233493   31.687255   13.398748
 C  -12.835677   29.634882   16.844184
 C   -8.416849   30.121510   12.047171
 C  -15.481086   24.978550   17.466279
 C   -8.330901   31.449739   12.316602
 C  -16.261509   23.945260   17.959975
 C  -13.458126   31.931418   18.306780
 C  -14.077247   30.727508   18.616277
 C  -12.532274   32.001151   17.274373
 C  -17.880463   24.268491   21.692125
 C  -17.577384   22.891740   21.141627
 C  -16.717773   23.984361   19.272822
 C  -15.166303   26.075491   18.270781
 C  -16.390148   25.074212   20.093770
 C  -15.614827   26.108895   19.592210
 N  -11.276343   30.967273   15.502924
 N  -14.413241   28.380406   18.242367
 O  -16.806501   25.149548   21.392668
 O  -11.114899   28.815184   14.724615
 O  -13.628125   26.908202   16.673232
 O  -17.487444   22.952048   19.724154
 O   -9.294914   29.520892   12.870494
 H   -9.416261   32.644729   13.867811
 H  -12.595290   28.749517   16.277907
 H   -7.932741   29.479457   11.324836
 H  -15.099913   24.954638   16.450285
 H   -7.704113   32.170140   11.809231
 H  -16.525923   23.087993   17.348626
 H  -13.699959   32.824735   18.876132
 H  -14.798477   30.675878   19.427844
 H  -12.051897   32.947218   17.038238
 H  -17.968649   24.253580   22.780959
 H  -18.813762   24.648721   21.254031
 H  -18.379269   22.184898   21.366685
 H  -16.632734   22.521479   21.563413
 H  -15.351006   26.909538   20.279342
 H  -10.916382   31.899108   15.364500
 H  -15.112574   28.479846   18.961173
