25 
6pg3_ligand_xtb.xyz
 C  -24.277557  -16.972321  140.234868
 C  -28.535993  -11.045559  143.756841
 C  -27.374318  -11.050911  142.770781
 C  -27.182358  -12.423383  142.131379
 C  -26.008239  -12.433006  141.144273
 C  -25.821448  -13.778300  140.540636
 N  -26.616875  -14.262651  139.550329
 C  -26.181993  -15.530409  139.265856
 C  -25.132760  -15.756837  140.108075
 N  -24.923342  -14.659609  140.892883
 O  -24.701784  -17.943578  139.302493
 H  -24.352468  -17.355880  141.263995
 H  -23.228375  -16.689535  140.059356
 H  -28.655123  -10.061017  144.202936
 H  -29.464954  -11.309668  143.255731
 H  -28.361567  -11.765028  144.553622
 H  -26.456706  -10.765162  143.289006
 H  -27.557775  -10.309349  141.989292
 H  -28.100084  -12.712423  141.612432
 H  -26.993017  -13.165973  142.908521
 H  -25.090380  -12.167371  141.668284
 H  -26.186777  -11.695965  140.356333
 H  -27.380829  -13.784830  139.101908
 H  -26.628536  -16.148821  138.517705
 H  -24.140744  -18.720416  139.393466
