32 
6pg8_ligand_xtb.xyz
 C -111.858537  -17.503817   25.173407
 C -109.486451  -18.107747   26.509427
 C -111.826394  -17.581570   26.559692
 O -116.980769  -24.162224   22.535685
 C -117.247931  -22.925289   23.160992
 C -115.960534  -22.266407   23.526134
 C -114.685007  -22.713314   23.338978
 N -113.872460  -21.736630   23.851825
 C -114.679894  -20.751273   24.325830
 C -114.153579  -19.498936   24.927624
 C -113.730235  -18.503256   23.840852
 C -113.138968  -17.221449   24.440298
 C -110.683739  -17.731366   24.466029
 C -109.506274  -18.030674   25.126865
 C -110.649548  -17.880509   27.224289
 N -115.939063  -21.046492   24.138723
 H -108.567448  -18.340726   27.026807
 H -112.731007  -17.403705   27.123937
 H -117.818903  -24.577786   22.309091
 H -117.812185  -22.259037   22.490587
 H -117.847360  -23.066765   24.073356
 H -114.313597  -23.613950   22.900296
 H -112.866392  -21.755373   23.879162
 H -113.295701  -19.728579   25.565112
 H -114.939634  -19.057151   25.539806
 H -114.602364  -18.253904   23.234356
 H -112.988545  -18.970265   23.188277
 H -112.946820  -16.513569   23.630668
 H -113.867148  -16.774384   25.119098
 H -110.692941  -17.667412   23.386698
 H -108.600695  -18.202264   24.562888
 H -110.640873  -17.936176   28.303212
