66 
6phx_ligand_xtb.xyz
 C    3.442191    0.258772   -0.661412
 C    4.371779    1.012480    0.300382
 C    3.639899    2.252327    0.840036
 C    3.176169    3.100527   -0.354693
 C    2.315878    2.236182   -1.290295
 C    1.913916    2.978901   -2.570641
 O    4.754108    0.150871    1.337119
 O    4.481220    2.978152    1.695896
 O    4.336663    3.605082   -0.973726
 O    3.030427    1.076463   -1.716737
 O    3.036390    3.264499   -3.374448
 C   -1.758701   -2.509746    0.250143
 C   -1.419424   -3.400974    1.458194
 C   -0.446996   -2.643303    2.361200
 C    0.798574   -2.247534    1.559053
 C    0.349280   -1.449144    0.324196
 C    1.519719   -1.114901   -0.598569
 O   -2.596468   -3.734986    2.151710
 O   -0.126180   -3.473801    3.451953
 O    1.627151   -1.515022    2.422451
 O   -0.584137   -2.192737   -0.447379
 O    2.366268   -0.216495    0.093885
 C   -4.758618   -1.894233    0.569741
 C   -3.624926   -0.974224    0.084978
 C   -3.838612    0.495451    0.502144
 C   -2.909421    1.198276   -0.496052
 C   -3.054022    0.315418   -1.746569
 C   -1.739118    0.158429   -2.519927
 O   -4.762915   -1.929538    1.970033
 O   -2.399884   -1.352528    0.705873
 O   -3.519322    0.775629    1.826463
 O   -3.267284    2.516487   -0.809564
 O   -3.544980   -0.954354   -1.307320
 O   -1.011543    1.362384   -2.580780
 H    3.979936   -0.576341   -1.136649
 H    5.253587    1.348710   -0.269919
 H    2.782489    1.927205    1.437687
 H    2.557111    3.936597    0.012528
 H    1.407698    1.936602   -0.751460
 H    1.458425    3.937591   -2.315959
 H    1.184589    2.368589   -3.113931
 H    4.996177    0.708158    2.090340
 H    5.074525    3.495335    1.133041
 H    4.120032    3.793369   -1.903501
 H    3.454444    2.418690   -3.582440
 H   -2.383927   -3.045557   -0.472952
 H   -0.928453   -4.313370    1.087491
 H   -0.936053   -1.723196    2.717804
 H    1.309037   -3.166620    1.220503
 H   -0.111361   -0.513319    0.671219
 H    2.068642   -2.029458   -0.862042
 H    1.142675   -0.656504   -1.519642
 H   -2.315273   -4.076682    3.012359
 H    0.640865   -3.078083    3.884238
 H    2.293591   -1.046901    1.896632
 H   -5.716627   -1.485940    0.242028
 H   -4.633381   -2.893465    0.138543
 H   -4.881341    0.774898    0.273935
 H   -1.883770    1.153320   -0.104292
 H   -3.821308    0.763784   -2.393104
 H   -1.957246   -0.214958   -3.529941
 H   -1.111012   -0.574697   -2.009353
 H   -4.000057   -2.473939    2.240436
 H   -3.904818    0.071834    2.369718
 H   -3.304446    3.016512    0.014046
 H   -1.631830    2.085325   -2.737406
