66 
6phx_ligand_aiqm1.xyz
 C    3.410510    0.304174   -0.700372
 C    4.367426    0.808305    0.368832
 C    4.059638    2.248058    0.748207
 C    4.075618    3.111860   -0.504366
 C    3.112100    2.517033   -1.535533
 C    3.110066    3.237108   -2.868926
 O    4.253653   -0.050007    1.492205
 O    4.984129    2.692102    1.722480
 O    5.431668    3.164566   -0.918078
 O    3.436843    1.152095   -1.828644
 O    4.378418    3.181436   -3.516933
 C   -1.784045   -2.417281    0.279199
 C   -1.263818   -3.234901    1.459741
 C   -0.346888   -2.395023    2.312741
 C    0.794026   -1.863631    1.466322
 C    0.203117   -1.080181    0.280454
 C    1.243223   -0.677668   -0.752922
 O   -2.367166   -3.711459    2.217850
 O    0.107604   -3.229501    3.369873
 O    1.571484   -1.076322    2.344836
 O   -0.700506   -1.913251   -0.456065
 O    2.131790    0.241107   -0.137937
 C   -4.780009   -2.471268    0.632232
 C   -3.935901   -1.275919    0.206839
 C   -4.502077    0.069434    0.670721
 C   -3.834158    1.022896   -0.307204
 C   -3.747202    0.184206   -1.584013
 C   -2.426061    0.364112   -2.308504
 O   -4.871833   -2.510121    2.042898
 O   -2.596668   -1.357087    0.731522
 O   -4.254660    0.411455    2.006143
 O   -4.568329    2.196595   -0.598047
 O   -3.896772   -1.200239   -1.197831
 O   -2.125002    1.740788   -2.490029
 H    3.721417   -0.675826   -1.070628
 H    5.380813    0.758609   -0.045414
 H    3.074394    2.294020    1.208361
 H    3.727362    4.122062   -0.257572
 H    2.101294    2.580070   -1.117576
 H    2.889490    4.293102   -2.720032
 H    2.336565    2.800193   -3.503807
 H    4.658317    0.418505    2.228169
 H    5.772691    2.972967    1.247840
 H    5.453452    3.362022   -1.860501
 H    4.535634    2.256649   -3.727561
 H   -2.322462   -3.056067   -0.420442
 H   -0.702860   -4.085208    1.053177
 H   -0.904446   -1.546601    2.716686
 H    1.375700   -2.714509    1.076627
 H   -0.305309   -0.185626    0.659712
 H    1.791474   -1.565335   -1.091715
 H    0.760045   -0.223100   -1.621634
 H   -2.001056   -4.051841    3.039459
 H    0.775799   -2.733280    3.846823
 H    2.341176   -0.714428    1.887744
 H   -5.787683   -2.345362    0.233172
 H   -4.364046   -3.394342    0.223496
 H   -5.581082    0.040003    0.456613
 H   -2.829778    1.259144    0.053644
 H   -4.586782    0.449683   -2.239899
 H   -2.440335   -0.170596   -3.266258
 H   -1.634276   -0.053345   -1.686594
 H   -4.035747   -2.890818    2.343289
 H   -4.476615   -0.367387    2.528760
 H   -4.463467    2.797956    0.140124
 H   -2.929898    2.185515   -2.764454
