47 
6pi1_ligand_aiqm1.xyz
 O   16.104870  110.059020   21.657837
 C   15.657783  111.081401   21.155507
 C   16.317458  112.403620   21.360549
 C   17.621961  112.407428   21.849709
 C   18.317408  113.592256   22.054033
 C   17.710921  114.834767   21.790501
 N   18.353136  116.055266   22.035673
 C   19.693073  115.987206   22.582099
 C   18.261128  117.052673   20.980876
 C   16.380163  114.825036   21.331669
 C   15.702636  113.634435   21.116370
 N   14.544126  111.087440   20.374729
 C   13.840623  109.865854   20.041263
 C   14.223308  109.282797   18.680851
 C   15.697720  108.899699   18.588846
 C   16.078240  108.203449   17.284061
 C   15.979148  109.106931   16.057531
 C   16.278947  108.366263   14.750376
 C   17.685922  107.838873   14.756304
 O   18.685894  108.533042   14.635826
 N   17.807921  106.484802   14.891725
 O   19.104697  106.048209   15.166164
 H   18.085754  111.454666   22.065542
 H   19.329045  113.546066   22.428900
 H   20.421575  115.569676   21.872315
 H   20.007684  116.998597   22.838534
 H   19.702776  115.390900   23.492310
 H   18.539410  118.025168   21.391134
 H   18.931883  116.820864   20.142094
 H   17.247291  117.127502   20.595248
 H   15.864557  115.760705   21.164685
 H   14.667288  113.681505   20.795233
 H   14.333170  111.923948   19.860199
 H   12.765532  110.063870   20.063876
 H   14.072864  109.155422   20.831878
 H   13.961903  110.000204   17.892195
 H   13.604618  108.397746   18.509117
 H   15.939652  108.243134   19.425758
 H   16.320993  109.791547   18.711735
 H   15.439441  107.322592   17.133851
 H   17.102162  107.830135   17.380996
 H   16.677512  109.941175   16.162431
 H   14.978225  109.536354   15.987329
 H   16.182063  109.045982   13.904815
 H   15.573616  107.543322   14.615955
 H   17.139958  105.999165   15.471198
 H   19.603142  106.886085   15.101076
