32 
6poi_ligand_ani-2x.xyz
 O   39.507112   11.989623    5.277567
 C   40.264038   13.113744    5.010216
 C   41.426552   13.296569    5.750804
 C   41.799161   15.390807    4.610563
 C   38.696184    9.239472    2.289366
 C   39.972164    6.892851    0.581616
 C   38.654624    7.588034    0.248377
 C   38.057879    8.234791    1.462378
 C   36.846065    8.035114    2.021635
 C   37.771094    9.549559    3.290319
 C   38.010153   10.479503    4.293636
 C   39.243462   11.114036    4.250403
 C   42.197147   14.435260    5.542159
 C   40.624308   15.203665    3.887270
 C   39.848192   14.063803    4.080356
 C   40.203282   10.822836    3.259212
 C   39.934749    9.884818    2.278092
 O   41.049863    7.299169    0.239617
 O   39.866701    5.762216    1.310521
 O   36.640476    8.812344    3.129644
 H   41.709950   12.539337    6.476284
 H   42.401028   16.281472    4.450560
 H   37.951782    6.869375   -0.191720
 H   38.880889    8.334979   -0.517977
 H   36.020854    7.383979    1.767191
 H   37.293884   10.705815    5.075217
 H   43.111232   14.576796    6.113635
 H   40.308946   15.949412    3.161937
 H   38.927732   13.912170    3.521653
 H   41.153318   11.347258    3.274823
 H   40.672864    9.647502    1.517238
 H   38.946916    5.622287    1.575706
