32 
6poi_ligand_aiqm1.xyz
 O   38.982826   12.361881    4.957651
 C   40.034676   13.253366    4.847207
 C   41.253000   12.959349    5.452133
 C   42.096442   15.109603    4.742472
 C   38.589508    9.299331    2.195777
 C   40.115662    6.841861    0.652076
 C   38.767405    7.469450    0.319113
 C   38.121422    8.120821    1.499615
 C   37.060762    7.679280    2.216307
 C   37.732578    9.456844    3.286273
 C   37.844709   10.471745    4.222984
 C   38.890910   11.362056    4.025684
 C   42.282502   13.895394    5.398614
 C   40.871718   15.392151    4.143051
 C   39.835688   14.462785    4.188731
 C   39.785298   11.238909    2.941996
 C   39.640553   10.209526    2.023590
 O   41.041699    6.820119   -0.107205
 O   40.194320    6.250151    1.864497
 O   36.791614    8.470804    3.303350
 H   41.377040   12.009173    5.953480
 H   42.900383   15.830583    4.699146
 H   38.135104    6.662915   -0.062751
 H   38.933341    8.174359   -0.491794
 H   36.404781    6.830821    2.093461
 H   37.168579   10.573568    5.058356
 H   43.231471   13.671247    5.865943
 H   40.720864   16.333620    3.632996
 H   38.877278   14.658607    3.727866
 H   40.589218   11.951213    2.830044
 H   40.334589   10.117315    1.197749
 H   39.386660    6.439754    2.359888
