25 
6prt_ligand_aiqm1.xyz
 C   -2.080173   -0.459176    1.459358
 C   -2.656327    1.802682    0.726177
 C   -1.231764    0.193904   -0.626610
 C   -0.457925   -1.068280   -0.215603
 C    0.922245   -0.727581    0.348778
 C    1.891816   -0.235282   -0.697913
 C    4.056914    0.564934   -1.049249
 C   -1.357793   -1.662987    0.873174
 N   -1.888281    0.586300    0.608417
 O   -2.711470   -0.424671    2.497235
 O    3.065423    0.089465   -0.131107
 O    1.679232   -0.139614   -1.881555
 H   -3.043015    1.851029    1.740794
 H   -3.495809    1.812626    0.023544
 H   -2.024558    2.670637    0.528969
 H   -0.577692    0.984611   -0.997879
 H   -1.966345   -0.033965   -1.409752
 H   -0.337213   -1.737287   -1.064408
 H    0.853414    0.032688    1.133371
 H    1.379933   -1.608285    0.811598
 H    4.272944   -0.193061   -1.798793
 H    4.935396    0.772160   -0.448514
 H    3.709921    1.467983   -1.546809
 H   -2.111082   -2.332194    0.453162
 H   -0.827790   -2.206939    1.654014
