25 
6prt_ligand_xtb.xyz
 C   -2.099839   -0.472104    1.459365
 C   -2.592777    1.814338    0.704963
 C   -1.221812    0.172569   -0.615642
 C   -0.465654   -1.098206   -0.198891
 C    0.913866   -0.755864    0.364927
 C    1.860151   -0.250502   -0.701250
 C    4.009439    0.616597   -1.058905
 C   -1.367992   -1.681258    0.890684
 N   -1.958990    0.533770    0.571231
 O   -2.703244   -0.409499    2.506922
 O    3.019175    0.138954   -0.157200
 O    1.629997   -0.203405   -1.880344
 H   -3.098726    1.832560    1.669096
 H   -3.324838    1.971138   -0.091869
 H   -1.850862    2.615697    0.666316
 H   -0.548116    0.978647   -0.914777
 H   -1.905566   -0.027166   -1.450882
 H   -0.340133   -1.773068   -1.046902
 H    0.834104   -0.000439    1.149019
 H    1.372451   -1.640905    0.812201
 H    4.262110   -0.155891   -1.787679
 H    4.875126    0.869460   -0.452804
 H    3.643829    1.496094   -1.592542
 H   -2.114875   -2.359531    0.474128
 H   -0.826824   -2.212283    1.671234
