44 
6ps9_ligand_ani-2x.xyz
 C    5.495847    0.451445    0.406401
 C    3.780008    0.882407   -1.296369
 C    2.261740    1.023532   -1.330353
 C    1.775538    0.358132   -0.031619
 C    1.400946   -1.119684   -0.205926
 C    0.145779   -1.383591   -1.042789
 C   -1.658200   -1.422035    0.694248
 C   -1.322871   -2.575227    1.410837
 C   -2.083366   -2.876178    2.528997
 C   -3.154200   -2.057458    2.933191
 C   -3.485547   -0.923629    2.218123
 C   -2.731329   -0.606518    1.082324
 C   -2.796502    0.447610    0.118468
 C   -1.797950    0.237517   -0.796975
 C   -1.523085    1.157331   -1.940775
 C   -2.828069    1.882998   -2.285263
 C   -3.700102    1.604283    0.039508
 C    3.003555    0.509963    0.886637
 N    4.124744    0.500467   -0.032307
 N   -1.082120   -0.881779   -0.449754
 N   -3.472835    2.381669   -1.075949
 O   -4.550471    1.898285    0.866087
 O    4.552336    1.088988   -2.214571
 H    6.126244    0.540954   -0.480495
 H    5.707428   -0.499613    0.907539
 H    5.731778    1.274611    1.094398
 H    1.871411    0.576209   -2.247877
 H    2.026411    2.094038   -1.354456
 H    0.925714    0.891906    0.402039
 H    2.241840   -1.652146   -0.664628
 H    1.248736   -1.563244    0.785686
 H    0.237488   -0.953990   -2.043763
 H    0.025937   -2.463417   -1.181582
 H   -0.497124   -3.212770    1.105816
 H   -1.846330   -3.764112    3.109783
 H   -3.724664   -2.326653    3.817962
 H   -4.305614   -0.271648    2.501805
 H   -1.144129    0.634205   -2.826856
 H   -0.763086    1.897376   -1.646448
 H   -3.494222    1.199863   -2.833416
 H   -2.631782    2.739445   -2.936496
 H    2.960214    1.454735    1.450428
 H    3.092555   -0.305088    1.614812
 H   -4.142248    3.131312   -1.184120
