44 
6ps9_ligand_xtb.xyz
 C    5.358216    0.510085    0.513644
 C    3.731057    0.852689   -1.296378
 C    2.215975    0.979601   -1.400196
 C    1.692921    0.345242   -0.108795
 C    1.401347   -1.148111   -0.285559
 C    0.129899   -1.426751   -1.098862
 C   -1.609327   -1.432536    0.685809
 C   -1.303224   -2.594248    1.382392
 C   -2.054530   -2.884858    2.502788
 C   -3.087600   -2.046446    2.927028
 C   -3.405244   -0.897238    2.237374
 C   -2.661214   -0.584153    1.103779
 C   -2.707269    0.482213    0.154323
 C   -1.712182    0.246113   -0.766120
 C   -1.455896    1.157829   -1.915847
 C   -2.781219    1.853575   -2.245744
 C   -3.557254    1.666876    0.102934
 C    2.868306    0.557110    0.859988
 N    4.022646    0.601723   -0.003806
 N   -1.043146   -0.900939   -0.454583
 N   -3.390776    2.390847   -1.049831
 O   -4.302600    2.046632    0.985829
 O    4.533408    0.959029   -2.196063
 H    6.043664    0.590517   -0.328562
 H    5.509433   -0.447590    1.017512
 H    5.557081    1.318977    1.221707
 H    1.855367    0.503525   -2.309074
 H    1.975302    2.043140   -1.454936
 H    0.794272    0.841039    0.264170
 H    2.248200   -1.627001   -0.780357
 H    1.278695   -1.600061    0.700618
 H    0.210474   -0.987770   -2.094551
 H    0.010631   -2.509091   -1.213446
 H   -0.513418   -3.257718    1.061871
 H   -1.839490   -3.782019    3.064592
 H   -3.646664   -2.313165    3.811639
 H   -4.202747   -0.243025    2.551061
 H   -1.099481    0.622895   -2.797392
 H   -0.703437    1.904123   -1.642318
 H   -3.454052    1.124854   -2.724999
 H   -2.610751    2.673561   -2.946660
 H    2.765440    1.499892    1.414322
 H    2.965547   -0.256110    1.584640
 H   -4.025956    3.167246   -1.161643
