44 
6ps9_ligand_aiqm1.xyz
 C    5.397846    0.486161    0.512026
 C    3.765742    0.819021   -1.280411
 C    2.258394    0.996734   -1.379886
 C    1.713479    0.342826   -0.102605
 C    1.397533   -1.144215   -0.297452
 C    0.129224   -1.412155   -1.105313
 C   -1.628984   -1.429918    0.686021
 C   -1.291224   -2.595851    1.386656
 C   -2.038470   -2.892357    2.517123
 C   -3.089071   -2.060674    2.944926
 C   -3.422769   -0.909932    2.249146
 C   -2.681711   -0.591400    1.102887
 C   -2.734886    0.481883    0.147424
 C   -1.746267    0.259222   -0.779560
 C   -1.491543    1.178145   -1.933051
 C   -2.808430    1.877138   -2.254306
 C   -3.606712    1.656390    0.080903
 C    2.889095    0.533452    0.869277
 N    4.048488    0.454490    0.000321
 N   -1.067623   -0.895056   -0.466220
 N   -3.375228    2.443716   -1.040241
 O   -4.424064    1.973425    0.928381
 O    4.574615    0.964929   -2.176040
 H    6.074359    0.424084   -0.336295
 H    5.568249   -0.357223    1.183326
 H    5.595419    1.414489    1.057647
 H    1.892345    0.567388   -2.313540
 H    2.051297    2.068919   -1.403027
 H    0.828098    0.851573    0.271994
 H    2.235360   -1.643284   -0.790852
 H    1.284589   -1.610726    0.684995
 H    0.199016   -0.965671   -2.097953
 H    0.001453   -2.485874   -1.251405
 H   -0.486788   -3.244139    1.061303
 H   -1.805674   -3.785343    3.081606
 H   -3.645327   -2.329067    3.833035
 H   -4.228307   -0.264817    2.569684
 H   -1.119425    0.650079   -2.811148
 H   -0.743362    1.924519   -1.645395
 H   -3.502211    1.159267   -2.709921
 H   -2.642912    2.683722   -2.966592
 H    2.839876    1.507875    1.370720
 H    2.927263   -0.244151    1.634435
 H   -4.090350    3.142906   -1.160320
