41 
6psb_ligand_ani-2x.xyz
 C    2.866368    2.147574   -0.440333
 C    0.578399    3.135572   -0.213407
 C    0.125849    2.003904    0.714656
 C    2.223859    0.865950   -0.114849
 C    0.956601    0.800988    0.402618
 C   -0.648124   -1.000296    1.139190
 C   -1.654151   -1.466989    0.068122
 C   -1.971163   -0.392704   -0.985889
 C   -3.635573    1.507355   -1.034899
 C   -3.796830   -0.415581    0.487446
 C   -3.030787   -1.719646    0.702085
 C    1.688089   -1.307608    0.235444
 C    2.715023   -0.471435   -0.231130
 C    3.922980   -1.017899   -0.679935
 C    4.076153   -2.389928   -0.652122
 C    3.040908   -3.220199   -0.183041
 C    1.839968   -2.697506    0.265570
 N    2.034536    3.227762   -0.233876
 N    0.614616   -0.512248    0.622589
 N   -3.080809    0.338714   -0.401704
 O    4.017923    2.287083   -0.824093
 O   -4.857903   -0.104219    0.994704
 H    0.179670    2.964309   -1.227078
 H    0.187599    4.096654    0.131830
 H   -0.948000    1.814039    0.588262
 H    0.285781    2.308614    1.757592
 H   -1.093222   -0.213356    1.755073
 H   -0.430479   -1.837467    1.808710
 H   -1.253423   -2.362508   -0.415592
 H   -2.265957   -0.865850   -1.935966
 H   -1.129329    0.273754   -1.199846
 H   -3.989868    1.293976   -2.053317
 H   -2.887849    2.308054   -1.088786
 H   -4.483302    1.839179   -0.432726
 H   -2.992554   -1.965854    1.766179
 H   -3.582412   -2.523314    0.200516
 H    4.701664   -0.349038   -1.033027
 H    5.004253   -2.839362   -0.994767
 H    3.189439   -4.297091   -0.171505
 H    1.043889   -3.348171    0.620137
 H    2.437868    4.104790   -0.533133
