41 
6psb_ligand_xtb.xyz
 C    2.808643    2.166971   -0.442374
 C    0.546611    3.154803   -0.147064
 C    0.141622    2.045902    0.830261
 C    2.160284    0.897863   -0.128165
 C    0.918838    0.829682    0.459844
 C   -0.667043   -0.945731    1.227386
 C   -1.594552   -1.519825    0.138162
 C   -1.857268   -0.501563   -0.979239
 C   -3.453165    1.435859   -1.140791
 C   -3.715020   -0.425627    0.444213
 C   -2.991731   -1.739137    0.720183
 C    1.605810   -1.273182    0.244805
 C    2.626370   -0.444819   -0.277907
 C    3.789253   -1.008647   -0.794036
 C    3.910340   -2.380650   -0.775499
 C    2.900530   -3.191657   -0.253246
 C    1.738563   -2.654993    0.262536
 N    1.985004    3.247322   -0.254031
 N    0.579618   -0.470407    0.698028
 N   -3.003572    0.232587   -0.498824
 O    3.965622    2.308801   -0.787942
 O   -4.731062   -0.026958    0.964362
 H    0.104188    2.940707   -1.134534
 H    0.161196    4.117525    0.195757
 H   -0.937148    1.891441    0.784366
 H    0.399190    2.342590    1.852733
 H   -1.171959   -0.119764    1.732812
 H   -0.463965   -1.726059    1.967795
 H   -1.153889   -2.432809   -0.264287
 H   -2.088697   -1.007050   -1.926840
 H   -1.010128    0.167301   -1.151833
 H   -3.701927    1.248990   -2.189107
 H   -2.682416    2.209041   -1.094019
 H   -4.343941    1.776740   -0.615270
 H   -2.992170   -1.974624    1.782733
 H   -3.527851   -2.532389    0.196059
 H    4.565134   -0.370417   -1.185211
 H    4.802970   -2.845456   -1.166998
 H    3.033598   -4.263491   -0.251263
 H    0.969701   -3.293904    0.671401
 H    2.374122    4.135034   -0.535258
