50 
6pu3_ligand_xtb.xyz
 N   -1.698770    2.261750   -0.421941
 C   -2.788981    1.443392    0.163870
 C   -2.194169    0.158229    0.759840
 O   -2.188237   -0.030129    1.958146
 C   -3.862677    1.237075   -0.908905
 O   -4.111099    2.517517   -1.449487
 N   -1.624049   -0.669215   -0.123315
 C   -0.941479   -1.879841    0.307895
 C    0.474505   -1.409416    0.671364
 O    1.406615   -1.515836   -0.108434
 C   -0.939523   -2.907588   -0.836255
 O   -2.183842   -2.804558   -1.501217
 C   -0.669501   -4.304165   -0.295922
 N    0.542128   -0.786719    1.861260
 C    1.574169    0.203945    2.199263
 C    1.381251    1.290339    1.128448
 O    0.371977    1.993993    1.160852
 C    2.987435   -0.390752    2.348674
 O    3.649361   -0.704835    1.151709
 N    2.272212    1.317389    0.144761
 C    2.059341    2.013493   -1.112635
 C    1.306845    0.990480   -1.971486
 O    2.098262    0.165339   -2.595839
 C    3.385108    2.442334   -1.717680
 O    0.091578    0.910779   -1.996433
 H   -1.197212    1.761103   -1.193284
 H   -0.946149    2.435018    0.297974
 H   -2.120947    3.122171   -0.787598
 H   -3.221784    2.008793    0.996112
 H   -3.509380    0.553465   -1.693591
 H   -4.756737    0.805597   -0.448804
 H   -4.933856    2.514816   -1.947600
 H   -1.677660   -0.530193   -1.120879
 H   -1.461654   -2.271579    1.187833
 H   -0.138117   -2.627961   -1.539746
 H   -2.461505   -3.681389   -1.785326
 H    0.277750   -4.321217    0.235591
 H   -0.614264   -5.020071   -1.113199
 H   -1.462630   -4.606117    0.385200
 H   -0.333156   -0.686784    2.368216
 H    1.284622    0.622818    3.165990
 H    2.908080   -1.276722    2.991462
 H    3.619480    0.345443    2.852058
 H    3.106277   -1.340840    0.648185
 H    3.073077    0.676165    0.210290
 H    1.407761    2.874432   -0.924122
 H    1.628481   -0.552278   -3.053419
 H    4.021997    1.578742   -1.886725
 H    3.220019    2.946497   -2.665539
 H    3.889244    3.127388   -1.042015
