34 
6pvz_ligand_ani-2x.xyz
 C   19.005876  -12.862215    5.713672
 C   16.649922  -15.790784    5.031812
 C   18.793996  -16.276774    4.052684
 C   18.428913  -11.531228    3.656997
 C   19.033533   -7.856053    0.693868
 C   20.143999   -8.809111    0.259478
 C   20.759592   -9.501194    1.438494
 C   22.049109   -9.516397    1.835364
 C   21.025697  -10.756508    3.309953
 C   20.739424  -11.576356    4.397335
 C   19.413434  -11.959578    4.567332
 C   18.459236  -14.193711    5.240218
 C   17.141197  -14.571951    5.491957
 C   17.477204  -16.647162    4.312600
 C   19.277424  -15.055582    4.509316
 C   18.727143  -10.712983    2.583911
 C   20.057704  -10.320525    2.406253
 O   19.441031   -6.736021    1.326390
 O   22.246276  -10.264054    2.963838
 O   17.864241   -8.059728    0.507511
 H   18.246904  -12.362981    6.329024
 H   19.874543  -13.024197    6.363947
 H   15.619491  -16.071830    5.237472
 H   19.445147  -16.941418    3.489829
 H   17.402041  -11.855131    3.810092
 H   20.906714   -8.262322   -0.309191
 H   19.685996   -9.533052   -0.420639
 H   22.942144   -9.052609    1.438542
 H   21.520473  -11.899996    5.079096
 H   16.489030  -13.904832    6.053675
 H   17.097865  -17.600838    3.953848
 H   20.305322  -14.764551    4.298999
 H   17.954061  -10.375450    1.899519
 H   20.396718   -6.766278    1.473505
