34 
6pvz_ligand_aiqm1.xyz
 C   19.090787  -12.876081    5.686677
 C   16.624046  -15.737240    5.134069
 C   18.697785  -16.292261    4.047504
 C   18.493707  -11.698020    3.530079
 C   19.109698   -7.745737    0.590843
 C   20.127714   -8.812208    0.204846
 C   20.742079   -9.488507    1.387981
 C   21.994080   -9.332046    1.880093
 C   21.011050  -10.651550    3.312521
 C   20.747198  -11.460798    4.413161
 C   19.462223  -11.987456    4.517449
 C   18.494388  -14.194534    5.243984
 C   17.177853  -14.532450    5.566712
 C   17.383150  -16.619304    4.372182
 C   19.248388  -15.089723    4.478823
 C   18.774449  -10.892213    2.439359
 C   20.068568  -10.357803    2.328038
 O   19.413648   -7.027631    1.694744
 O   22.194787  -10.028586    3.041595
 O   18.125651   -7.507815   -0.049073
 H   18.371231  -12.354854    6.323295
 H   19.983276  -13.055600    6.290535
 H   15.601833  -15.981229    5.392514
 H   19.294114  -16.973467    3.454254
 H   17.508845  -12.132166    3.635386
 H   20.896726   -8.306483   -0.386177
 H   19.619704   -9.519105   -0.446456
 H   22.843569   -8.762903    1.533096
 H   21.510971  -11.664593    5.153149
 H   16.580397  -13.849820    6.161645
 H   16.955985  -17.553227    4.032752
 H   20.267931  -14.832182    4.216899
 H   18.013119  -10.681841    1.697699
 H   20.192449   -7.413965    2.116521
