36 
6pya_ligand_ani-2x.xyz
 C  -14.990078  -31.444496   -2.335657
 C  -14.351408  -32.427819   -1.606236
 C  -13.509141  -33.364620   -2.238398
 C  -13.289535  -33.329547   -3.602380
 C  -13.936258  -32.331802   -4.336443
 C  -14.789571  -31.393850   -3.726429
 C  -15.280507  -30.529851   -4.761683
 C  -14.671468  -30.924068   -5.929861
 C  -14.710431  -30.280176   -7.247056
 C  -14.708601  -31.033932   -8.425775
 C  -14.756997  -30.405072   -9.663243
 C  -14.788580  -29.015057   -9.744159
 C  -14.772893  -28.256819   -8.577230
 C  -14.738234  -28.885188   -7.337577
 C  -16.323139  -29.470300   -4.551512
 C  -16.564845  -27.328553   -3.249619
 C  -14.537309  -26.726236   -3.016868
 C  -14.503022  -27.903749   -3.715031
 N  -13.909151  -32.050501   -5.685981
 N  -15.814568  -28.286795   -3.860804
 N  -15.832187  -26.373888   -2.731386
 H  -15.633159  -30.715874   -1.846840
 H  -14.497269  -32.483937   -0.530990
 H  -13.020314  -34.128807   -1.639600
 H  -12.636468  -34.053159   -4.084510
 H  -14.687645  -32.120457   -8.366201
 H  -14.763970  -31.003950  -10.570602
 H  -14.821789  -28.525446  -10.713885
 H  -14.794079  -27.172380   -8.629462
 H  -14.712207  -28.289798   -6.425714
 H  -16.773732  -29.176417   -5.510316
 H  -17.143531  -29.871376   -3.943405
 H  -17.647195  -27.380994   -3.215774
 H  -13.704630  -26.110004   -2.699759
 H  -13.700098  -28.521666   -4.089115
 H  -13.257990  -32.445416   -6.346498
