49 
6pyb_ligand_xtb.xyz
 C    2.015542    0.459597    0.211735
 C    1.810958    1.787497    0.884532
 C    0.369299    2.284260    0.710404
 C    0.120132    3.607181    1.471523
 C   -0.037058    4.175010   -0.700976
 C   -1.320223    2.054571   -1.193008
 C   -0.587272   -1.517619   -2.208341
 C   -1.957643   -1.553099   -0.232257
 C   -1.978521   -0.170497   -0.228484
 C    2.288675   -2.010032   -1.058519
 C    0.576753   -3.133642    1.944835
 C   -1.305942    0.552541   -1.208485
 C   -0.615252   -0.135300   -2.193609
 C   -1.249711   -2.238912   -1.230093
 C   -3.428658   -1.759513    1.641595
 C    2.673812    0.358133   -1.000738
 C    2.808759   -0.866269   -1.634327
 C    1.646356   -1.922379    0.188925
 C    1.508013   -0.694538    0.804084
 C    0.028504    2.640966   -0.750079
 O    1.203408   -3.125333    0.688870
 O   -0.532407    4.484150    0.581043
 O   -1.213772   -3.598584   -1.242066
 O   -2.587195   -2.365762    0.694587
 O    2.401660   -3.205429   -1.690342
 H    2.017500    1.694561    1.954140
 H    2.499872    2.525248    0.468689
 H   -0.306809    1.505916    1.068257
 H    1.079132    4.043744    1.789873
 H   -0.519370    3.491033    2.347971
 H   -0.714457    4.611036   -1.434955
 H    0.967154    4.606424   -0.834006
 H   -2.098090    2.421627   -0.520811
 H   -1.539443    2.420959   -2.199013
 H   -0.054098   -2.057902   -2.973301
 H   -2.530066    0.363380    0.530841
 H    1.242465   -2.754210    2.726977
 H   -0.346260   -2.547623    1.937128
 H    0.338897   -4.176754    2.149316
 H   -0.095463    0.412183   -2.964390
 H   -4.226880   -1.187589    1.158988
 H   -2.869956   -1.103012    2.317407
 H   -3.864688   -2.576046    2.215638
 H    3.093950    1.239829   -1.462073
 H    3.312503   -0.951028   -2.583637
 H    1.009112   -0.612614    1.757491
 H    0.806522    2.294983   -1.430921
 H   -1.734077   -3.914867   -0.491489
 H    1.894133   -3.856175   -1.185825
