49 
6pyb_ligand_aiqm1.xyz
 C    2.307147    0.587079    0.104639
 C    2.021235    1.897778    0.785759
 C    0.533021    2.270612    0.737500
 C    0.261103    3.614307    1.453585
 C   -0.062710    4.051987   -0.732890
 C   -1.355756    1.908049   -0.946605
 C   -0.627635   -1.759459   -1.713578
 C   -2.375281   -1.645597   -0.064601
 C   -2.302990   -0.260299   -0.071789
 C    2.677627   -1.850088   -1.233715
 C    0.660512   -3.024469    1.529331
 C   -1.388534    0.398841   -0.909621
 C   -0.552969   -0.368499   -1.718575
 C   -1.539669   -2.401869   -0.892048
 C   -4.125243   -1.689927    1.539905
 C    3.002335    0.529781   -1.099533
 C    3.188793   -0.681904   -1.772505
 C    1.998214   -1.806453   -0.008523
 C    1.812434   -0.605154    0.649958
 C    0.025289    2.524937   -0.698351
 O    1.535945   -3.018387    0.411419
 O   -0.515323    4.407128    0.565475
 O   -1.584784   -3.764400   -0.858738
 O   -3.212155   -2.397661    0.721894
 O    2.813927   -3.031687   -1.896829
 H    2.338915    1.856499    1.833330
 H    2.599185    2.693400    0.304425
 H   -0.048155    1.468260    1.198999
 H    1.211474    4.124289    1.664122
 H   -0.289378    3.509886    2.386709
 H   -0.786647    4.436050   -1.450696
 H    0.918076    4.503593   -0.929526
 H   -2.053224    2.310216   -0.206160
 H   -1.713751    2.243871   -1.927346
 H    0.041245   -2.359954   -2.316048
 H   -2.953573    0.328926    0.560950
 H    1.209546   -2.810328    2.450672
 H   -0.139880   -2.288368    1.414607
 H    0.230423   -4.021142    1.568270
 H    0.176581    0.118096   -2.354023
 H   -4.779531   -1.051826    0.942887
 H   -3.599571   -1.077647    2.277160
 H   -4.718338   -2.443445    2.050409
 H    3.399258    1.439097   -1.536249
 H    3.715483   -0.723298   -2.717012
 H    1.253080   -0.573616    1.576884
 H    0.728138    2.149862   -1.439555
 H   -2.313102   -4.010490   -0.277859
 H    2.379017   -3.706477   -1.363417
