49 
6pyb_ligand_ani-2x.xyz
 C    2.412040    0.607405    0.088521
 C    1.923407    1.834102    0.831720
 C    0.412015    2.099240    0.686404
 C   -0.012703    3.401407    1.409824
 C    0.049382    3.892233   -0.815466
 C   -1.444735    1.875338   -1.071420
 C   -1.019559   -1.895759   -1.459092
 C   -2.783860   -1.482593    0.125213
 C   -2.606873   -0.114601   -0.022308
 C    3.315694   -1.667557   -1.296304
 C    1.199295   -3.307402    1.150443
 C   -1.635481    0.383745   -0.902259
 C   -0.853244   -0.521811   -1.611665
 C   -1.992118   -2.383057   -0.602043
 C   -4.530312   -1.236713    1.712388
 C    3.316766    0.716318   -0.965452
 C    3.765160   -0.409340   -1.656124
 C    2.401608   -1.792103   -0.232637
 C    1.950351   -0.667122    0.445544
 C   -0.016405    2.366377   -0.772337
 O    2.047483   -3.087046    0.041075
 O   -0.497219    4.298917    0.423742
 O   -2.154403   -3.724245   -0.435641
 O   -3.694585   -2.083353    0.952650
 O    3.745385   -2.775801   -1.953186
 H    2.151026    1.735308    1.902366
 H    2.477476    2.713498    0.476957
 H   -0.117162    1.234584    1.102635
 H    0.843296    3.849340    1.940234
 H   -0.816919    3.249319    2.138926
 H   -0.554302    4.342232   -1.610282
 H    1.090531    4.243428   -0.922023
 H   -2.142334    2.415762   -0.420693
 H   -1.692873    2.161379   -2.104127
 H   -0.378083   -2.601878   -1.980254
 H   -3.219228    0.576620    0.548122
 H    1.662374   -2.956305    2.081889
 H    0.231306   -2.811270    1.015378
 H    1.044331   -4.386067    1.211842
 H   -0.096246   -0.156379   -2.303461
 H   -5.140877   -0.597394    1.062871
 H   -3.941933   -0.606165    2.390263
 H   -5.181956   -1.887352    2.297141
 H    3.677048    1.698779   -1.266157
 H    4.467995   -0.319691   -2.479288
 H    1.239301   -0.770072    1.261004
 H    0.669339    1.914772   -1.495035
 H   -2.882841   -3.838891    0.194425
 H    3.313442   -3.530037   -1.521222
