56 
6pyr_ligand_aiqm1.xyz
 C    2.849301    0.485733    1.169995
 C    3.864935    1.416970    1.577486
 C    3.488022    2.662898    1.968944
 C    1.211796    2.030717    1.547610
 C   -0.019951    2.680135    1.669247
 C    0.320745    3.959604    2.142813
 C   -2.485593    2.902885    1.800238
 C   -3.789982    2.466054    1.547353
 C   -1.561561    0.963202    0.683010
 C   -3.346146   -0.698077   -0.313875
 C   -4.872608   -0.567332   -0.137241
 C   -1.641450   -0.749752   -2.247360
 C    0.368049   -2.050769   -2.661146
 C    1.085558   -0.885810   -2.922167
 C   -2.878865   -2.002033    0.338541
 C    3.846210   -3.342655   -0.131905
 C    4.456686   -1.463784    0.997511
 C    4.222234   -4.701976   -0.629008
 N    2.163797    2.957387    1.958533
 N    1.573361    0.790000    1.144542
 N    1.634470    4.135873    2.318343
 C   -1.368763    2.170458    1.379148
 C   -3.942628    1.283171    0.850553
 C   -2.843145    0.534182    0.403955
 O   -5.710341   -1.358639   -0.504374
 N   -5.123488    0.627124    0.491807
 C   -3.092189   -0.678527   -1.845901
 C   -0.983247   -1.980179   -2.329823
 C    0.438567    0.346291   -2.857048
 C   -0.914567    0.410026   -2.530656
 C    3.222317   -0.874156    0.734816
 C    2.323387   -1.662814    0.016964
 N    2.625804   -2.884413   -0.426350
 N    4.776006   -2.686770    0.574089
 H    4.912020    1.158749    1.559831
 H    4.148642    3.455302    2.290418
 H   -0.337887    4.784049    2.360919
 H   -2.349732    3.823844    2.351198
 H   -4.641780    3.037156    1.892985
 H   -0.704597    0.380401    0.368684
 H    0.868907   -3.010788   -2.669803
 H    2.143845   -0.940003   -3.149893
 H   -3.366114   -2.848346   -0.148128
 H   -3.134488   -2.009167    1.400317
 H   -1.797034   -2.113954    0.249290
 H    5.214103   -0.953477    1.581456
 H    3.379644   -5.161704   -1.137974
 H    5.068591   -4.617674   -1.310391
 H    4.543622   -5.321943    0.206269
 H   -6.051256    0.902181    0.756527
 H   -3.534410    0.233139   -2.254927
 H   -3.642987   -1.521882   -2.269882
 H   -1.532242   -2.891258   -2.119088
 H    0.985975    1.260377   -3.050982
 H   -1.408093    1.373754   -2.475643
 H    1.338150   -1.280882   -0.210225
