28 
6q8p_ligand_ani-2x.xyz
 C  -13.611603    4.265535   36.520623
 C  -13.569193    4.656977   37.831639
 C  -13.299924    2.539367   38.614565
 C  -13.324271    1.985199   37.301095
 C  -13.186616    0.608867   37.075517
 C  -13.222644    0.085287   35.792510
 C  -13.396778    0.957193   34.666243
 C  -13.501176    2.337213   34.897819
 C  -13.383927   -0.847095   33.272112
 C  -13.478693   -0.438059   30.875007
 C  -13.106552   -1.305884   35.475004
 O  -14.563783    4.000409   33.733646
 N  -13.625833    3.217548   33.739895
 O  -12.780063    3.131934   32.873105
 C  -13.492567    2.883286   36.199879
 N  -13.492381    0.456374   33.412215
 N  -13.498115   -1.336338   32.010545
 N  -13.176376   -1.773614   34.260215
 N  -13.416098    3.811841   38.885147
 H  -13.741182    4.993826   35.730066
 H  -13.663295    5.708681   38.090343
 H  -13.175187    1.861523   39.460876
 H  -13.055010   -0.055281   37.927230
 H  -14.314066    0.263066   30.951141
 H  -12.556529    0.155124   30.834737
 H  -13.579069   -1.024102   29.958729
 H  -12.953303   -2.026456   36.281295
 H  -13.209165   -2.294420   31.896402
