50 
6qcj_ligand_dft.xyz
 O   -0.304602   -2.439269    1.334842
 O    7.498579    0.619293    0.197237
 O   -2.821732    4.100718    0.952247
 O   -2.737685    2.901235   -1.418378
 O   -4.624282    0.643645   -1.460925
 O   -5.368432   -3.279304    1.057521
 O    4.627100   -3.070671   -0.637893
 O   -6.307330   -1.181969   -0.372726
 C   -0.636224    3.190016    1.564794
 C    0.443934    2.389944    1.195925
 C    6.100428   -1.218636   -0.220468
 C   -2.705223   -0.575148   -0.606516
 C   -3.123791   -2.555417    0.731297
 C    5.115372    0.960252    0.149781
 C   -0.561248    2.029789   -0.960683
 C    2.298477   -1.578026   -0.394584
 O   -0.053565   -0.926277   -0.317304
 O    2.798362    1.254876    0.101752
 C   -0.788331   -1.747675    0.468951
 C    6.234206    0.143463    0.050391
 C   -1.696524    3.369227    0.688159
 C   -1.660019    2.778238   -0.577945
 C   -4.066910   -0.396527   -0.777287
 C   -4.488679   -2.398122    0.520449
 C    4.827316   -1.751940   -0.377501
 C   -2.236701   -1.641947    0.161818
 C    0.483400    1.800460   -0.063565
 C   -4.959495   -1.313684   -0.225459
 C    3.851174    0.393086   -0.017557
 C    3.671877   -0.965452   -0.272503
 C    1.260352   -0.595867    0.120263
 C    1.558507    0.810453   -0.429904
 H    7.457993    1.565545    0.379652
 H   -2.789203    4.446994    1.851243
 H   -3.343565    3.541362   -1.013753
 H   -3.949938    1.333912   -1.599445
 H   -6.259742   -2.993680    0.811491
 H    5.479175   -3.522397   -0.654998
 H   -6.466138   -0.374780   -0.883404
 H   -0.662943    3.654600    2.547531
 H    1.259173    2.225850    1.892263
 H    6.991293   -1.834050   -0.301998
 H   -2.008733    0.126856   -1.038433
 H   -2.759889   -3.373291    1.342256
 H    5.194798    2.025736    0.342189
 H   -0.548309    1.586513   -1.952101
 H    2.067861   -1.819985   -1.440287
 H    2.236943   -2.512219    0.169661
 H    1.275819   -0.555307    1.214742
 H    1.642709    0.741207   -1.524723
