52 
6qfe_ligand_xtb.xyz
 C   -5.239604  -16.962878   67.612726
 C   -4.006174  -17.881332   69.085744
 C   -4.519158  -16.341742   71.084482
 C   -5.462867  -15.155914   72.960371
 C   -3.407818  -16.654346   71.868814
 C   -3.414917  -15.402188   65.657494
 C   -2.354368  -14.615312   65.242177
 C   -1.526277  -14.287741   67.466980
 C   -2.416358  -13.871660   69.771537
 C   -4.540227  -12.845442   70.057650
 N   -0.749001  -12.493479   63.870168
 C   -0.851768  -13.763900   63.381307
 N   -0.021133  -14.143508   62.493832
 C   -1.994949  -14.568291   63.887177
 C   -2.717472  -15.358774   62.997240
 C   -3.776372  -16.138449   63.404300
 C   -4.154197  -16.158398   64.749059
 N   -5.218453  -16.919648   65.159117
 C   -5.974388  -16.631435   66.351479
 N   -5.389478  -16.233069   68.750915
 C   -4.597338  -16.810520   69.717257
 N   -4.419081  -17.963825   67.798790
 C   -5.548646  -15.589066   71.651079
 C   -4.351793  -15.465048   73.727200
 C   -3.327022  -16.218569   73.176638
 O   -1.615988  -13.862315   66.128002
 C   -2.588355  -13.754532   68.395162
 C   -3.398018  -13.395968   70.620785
 N   -4.717859  -12.730022   68.753687
 C   -3.758299  -13.152189   67.946882
 H   -3.329621  -18.609025   69.485675
 H   -6.268802  -14.576193   73.386300
 H   -2.605707  -17.234343   71.438816
 H   -3.674607  -15.442222   66.700897
 H   -1.523184  -15.386806   67.519416
 H   -0.547995  -13.931778   67.812865
 H   -1.520800  -14.329493   70.166984
 H   -5.349515  -12.479352   70.675583
 H   -1.124211  -12.321521   64.787282
 H    0.113040  -12.026024   63.638168
 H   -0.196894  -15.074074   62.129543
 H   -2.445907  -15.335775   61.951417
 H   -4.325043  -16.729800   62.686065
 H   -5.707995  -17.406222   64.426949
 H   -6.262433  -15.567192   66.393585
 H   -6.890984  -17.228980   66.316919
 H   -5.926603  -15.387824   68.860197
 H   -6.430627  -15.354883   71.071969
 H   -4.286182  -15.123727   74.749490
 H   -2.459607  -16.464815   73.771458
 H   -3.286417  -13.460400   71.691271
 H   -3.940528  -13.000992   66.891099
