52 
6qfg_ligand_xtb.xyz
 C   -5.239604  -16.962878   67.612726
 C   -4.006175  -17.881332   69.085744
 C   -4.519159  -16.341742   71.084481
 C   -5.462867  -15.155914   72.960371
 C   -3.407818  -16.654347   71.868814
 C   -3.414917  -15.402187   65.657494
 C   -2.354368  -14.615312   65.242177
 C   -1.526277  -14.287742   67.466980
 C   -2.416358  -13.871660   69.771537
 C   -4.540226  -12.845442   70.057650
 N   -0.749001  -12.493479   63.870169
 C   -0.851768  -13.763901   63.381308
 N   -0.021133  -14.143509   62.493832
 C   -1.994949  -14.568291   63.887177
 C   -2.717472  -15.358774   62.997240
 C   -3.776372  -16.138448   63.404300
 C   -4.154197  -16.158397   64.749059
 N   -5.218454  -16.919647   65.159117
 C   -5.974389  -16.631434   66.351479
 N   -5.389478  -16.233068   68.750915
 C   -4.597338  -16.810520   69.717257
 N   -4.419082  -17.963825   67.798790
 C   -5.548646  -15.589065   71.651079
 C   -4.351793  -15.465048   73.727200
 C   -3.327022  -16.218569   73.176638
 O   -1.615987  -13.862315   66.128002
 C   -2.588354  -13.754532   68.395162
 C   -3.398017  -13.395969   70.620785
 N   -4.717858  -12.730021   68.753687
 C   -3.758299  -13.152189   67.946883
 H   -3.329622  -18.609026   69.485675
 H   -6.268801  -14.576193   73.386300
 H   -2.605707  -17.234344   71.438816
 H   -3.674607  -15.442222   66.700897
 H   -1.523184  -15.386806   67.519416
 H   -0.547995  -13.931779   67.812865
 H   -1.520800  -14.329493   70.166984
 H   -5.349514  -12.479352   70.675583
 H   -1.124210  -12.321522   64.787282
 H    0.113041  -12.026024   63.638168
 H   -0.196895  -15.074075   62.129543
 H   -2.445907  -15.335775   61.951417
 H   -4.325044  -16.729799   62.686065
 H   -5.707996  -17.406221   64.426949
 H   -6.262433  -15.567191   66.393585
 H   -6.890985  -17.228979   66.316919
 H   -5.926603  -15.387824   68.860197
 H   -6.430627  -15.354883   71.071969
 H   -4.286182  -15.123727   74.749490
 H   -2.459608  -16.464816   73.771458
 H   -3.286416  -13.460400   71.691271
 H   -3.940528  -13.000991   66.891099
