35 
6qh9_ligand_dft.xyz
 C    1.750436    1.224439   -0.380438
 C   -1.333713   -0.796336   -0.167124
 C   -2.784290   -0.359633   -0.483021
 C   -5.206300   -0.895683   -0.074372
 N    5.859127    1.108583    0.678006
 C    5.290513   -0.032799    0.135166
 N    6.052155   -0.986876   -0.250645
 C    3.803257    0.009327    0.016774
 C    3.130216    1.203936   -0.255620
 C    1.003536    0.049886   -0.225404
 N   -0.387067    0.157065   -0.378377
 O   -1.114429   -1.945293    0.178646
 C   -3.771288   -1.381777    0.090466
 C   -5.397637    0.395312    0.707525
 N   -4.348359    1.347967    0.371171
 C   -3.119708    1.093583   -0.133800
 O   -2.338678    2.018450   -0.359130
 C    1.665587   -1.150351    0.055996
 C    3.049734   -1.155135    0.171086
 H    1.241461    2.158564   -0.603801
 H   -2.855039   -0.384361   -1.581591
 H   -5.914419   -1.645345    0.291567
 H   -5.430132   -0.721608   -1.134430
 H    5.348654    1.543280    1.433849
 H    6.848394    0.999852    0.861508
 H    5.505815   -1.694113   -0.740425
 H    3.697165    2.119568   -0.393486
 H   -0.767849    1.086827   -0.559070
 H   -3.613994   -2.342927   -0.402362
 H   -3.552744   -1.542846    1.152469
 H   -5.379382    0.184832    1.785615
 H   -6.362834    0.856719    0.477002
 H   -4.501871    2.327139    0.571952
 H    1.095199   -2.058123    0.192438
 H    3.553373   -2.088493    0.408141
