35 
6qh9_ligand_xtb.xyz
 C    1.969502   -0.826218    1.080517
 C   -1.119896    0.740675   -0.148001
 C   -2.545480    0.465279    0.387997
 C   -4.951508    0.601749   -0.330309
 N    6.070404   -1.158795    0.083529
 C    5.476320    0.073214    0.028440
 N    6.220939    1.101225   -0.052924
 C    3.996277    0.071101    0.143561
 C    3.342521   -0.852315    0.956684
 C    1.213544    0.115270    0.381952
 N   -0.169242    0.098581    0.567800
 O   -0.931169    1.480469   -1.087690
 C   -3.570301    1.226748   -0.452012
 C   -4.877651   -0.825633   -0.853668
 N   -3.856049   -1.549390   -0.131248
 C   -2.784182   -1.033758    0.483580
 O   -2.027150   -1.753651    1.123464
 C    1.860260    1.039818   -0.433853
 C    3.236645    1.014593   -0.541556
 H    1.467076   -1.539626    1.718349
 H   -2.553063    0.829652    1.422861
 H   -5.680432    1.168653   -0.908810
 H   -5.270557    0.593276    0.714113
 H    5.547380   -1.952369   -0.245456
 H    7.057639   -1.156549   -0.117165
 H    5.721592    1.982895   -0.000287
 H    3.918488   -1.577495    1.512478
 H   -0.517593   -0.642225    1.179861
 H   -3.587175    2.270379   -0.136419
 H   -3.248755    1.210691   -1.495482
 H   -4.642936   -0.815961   -1.926074
 H   -5.830511   -1.344091   -0.716930
 H   -3.949450   -2.552990   -0.057001
 H    1.283105    1.766186   -0.980761
 H    3.731308    1.730512   -1.182939
