39 
6qha_ligand_ani-2x.xyz
 C  -23.588525   -2.939693  -17.225332
 C  -23.219493    0.805729  -19.358405
 C  -22.802881    1.921582  -21.544577
 C  -22.506514    1.665876  -22.888584
 C  -22.329957    2.711907  -23.780723
 C  -22.464106    4.034905  -23.359022
 C  -22.056601   -5.791702  -17.966877
 C  -23.305402   -5.381406  -18.728431
 O  -23.159033   -4.107121  -19.349229
 C  -23.319749   -2.977088  -18.581352
 C  -23.733368   -1.701012  -16.594713
 C  -23.606004   -0.528436  -17.317194
 C  -23.333781   -0.546964  -18.693646
 O  -23.360036    1.818622  -18.685408
 N  -22.960355    0.810257  -20.699714
 C  -22.766713    4.278020  -22.017751
 C  -22.929288    3.243172  -21.108956
 C  -22.271116    5.163804  -24.318437
 N  -23.088215    6.261641  -24.094803
 N  -21.407605    5.201365  -25.258523
 C  -23.196311   -1.784315  -19.319416
 O  -22.943058   -1.901386  -20.652287
 H  -23.686877   -3.852634  -16.649244
 H  -22.402150    0.639149  -23.233599
 H  -22.110230    2.496044  -24.825017
 H  -22.184219   -6.797008  -17.551564
 H  -21.193497   -5.798569  -18.638941
 H  -21.837148   -5.106919  -17.141790
 H  -24.194221   -5.379785  -18.085079
 H  -23.499517   -6.078555  -19.548035
 H  -23.948013   -1.663587  -15.530948
 H  -23.713237    0.441737  -16.842960
 H  -22.863456   -0.092894  -21.142582
 H  -22.862288    5.306118  -21.676446
 H  -23.160574    3.445300  -20.072560
 H  -24.025902    6.053584  -23.780356
 H  -23.055669    6.927148  -24.856352
 H  -20.852708    4.346677  -25.272179
 H  -22.915185   -2.854561  -20.844971
