39 
6qha_ligand_xtb.xyz
 C  -23.696622   -2.924908  -17.238177
 C  -23.262872    0.817206  -19.310365
 C  -22.835189    1.895840  -21.504762
 C  -22.625076    1.616085  -22.856589
 C  -22.438326    2.637504  -23.762635
 C  -22.467682    3.967350  -23.349446
 C  -21.908358   -5.623219  -18.055768
 C  -23.243166   -5.362817  -18.745141
 O  -23.297402   -4.094085  -19.366443
 C  -23.425605   -2.961737  -18.592198
 C  -23.818957   -1.698242  -16.599235
 C  -23.669713   -0.530898  -17.308889
 C  -23.397389   -0.535728  -18.680794
 O  -23.378541    1.826226  -18.640790
 N  -23.011941    0.813890  -20.647865
 C  -22.677030    4.241521  -22.000604
 C  -22.853537    3.224196  -21.083919
 C  -22.251643    5.059117  -24.331273
 N  -22.936781    6.216161  -24.081851
 N  -21.459044    5.027669  -25.326522
 C  -23.276089   -1.766958  -19.324262
 O  -23.014044   -1.884141  -20.660751
 H  -23.818864   -3.833430  -16.670707
 H  -22.610074    0.587601  -23.190032
 H  -22.285586    2.406415  -24.807820
 H  -21.905832   -6.624402  -17.634561
 H  -21.096249   -5.541106  -18.774167
 H  -21.736185   -4.903787  -17.258897
 H  -24.077559   -5.481344  -18.044319
 H  -23.384096   -6.068773  -19.568521
 H  -24.030455   -1.670548  -15.541866
 H  -23.758108    0.431240  -16.829044
 H  -22.945986   -0.091961  -21.094045
 H  -22.677069    5.266348  -21.659756
 H  -23.006834    3.448303  -20.041909
 H  -23.806199    6.157770  -23.580154
 H  -22.880196    6.906682  -24.812761
 H  -20.917746    4.172646  -25.400691
 H  -22.970956   -2.832686  -20.858473
