32 
6qhc_ligand_xtb.xyz
 C    8.553708    0.451834   25.384329
 C    9.664417    0.505592   24.545678
 C   10.155429    1.716303   24.107184
 C    9.540540    2.911110   24.486466
 C    8.421817    2.862613   25.315719
 C    7.943595    1.645669   25.759463
 C    8.024335   -0.858230   25.838977
 N    7.474972   -0.866033   27.091117
 N    7.988918   -1.931150   25.155507
 N   10.089215    4.094812   24.000875
 C    9.705830    5.376962   24.248800
 O    8.779331    5.681005   24.976274
 C   10.508909    6.436421   23.556670
 C   10.088307    7.745454   23.796070
 C   10.718463    8.836313   23.235515
 C   11.808118    8.635948   22.405243
 C   12.246592    7.350923   22.151652
 C   11.613808    6.247581   22.714291
 O   12.089605    4.994755   22.430953
 H   10.156073   -0.411238   24.251108
 H   11.024330    1.746176   23.464096
 H    7.936621    3.778813   25.606642
 H    7.066108    1.620072   26.388529
 H    7.811108   -0.200106   27.765245
 H    7.227037   -1.778232   27.438396
 H    8.331857   -1.831764   24.205769
 H   10.884215    3.968260   23.388516
 H    9.236729    7.870862   24.447878
 H   10.365500    9.834327   23.442379
 H   12.318440    9.473443   21.954403
 H   13.098883    7.189039   21.503281
 H   12.850189    5.067465   21.839975
