38 
6qho_ligand_ani-2x.xyz
 C    2.300791    0.119695    0.393417
 C    3.381844    0.443141   -0.432532
 C    4.472163    1.067162    0.222155
 N    4.414526    1.309764    1.533935
 C    3.302686    0.934687    2.187856
 O   -4.264001   -0.288866    1.003899
 C   -3.220586    0.231062    0.638327
 C   -2.830903    1.621394    1.126594
 C   -3.905271    2.230132    2.015943
 C    2.975150    0.013370   -1.724947
 C    0.031689   -0.897850   -0.014021
 C   -0.248812   -2.339698   -0.460286
 C   -1.677403   -2.746830   -0.097362
 C   -2.684323   -1.752862   -0.672150
 C   -1.034024    0.044030   -0.597991
 N    2.218319    0.344884    1.714958
 N    1.364520   -0.459091   -0.403928
 N    1.768009   -0.518525   -1.693691
 N    5.578360    1.470822   -0.451750
 N   -2.366380   -0.401031   -0.229730
 H    3.299828    1.148824    3.255369
 H   -2.646229    2.268574    0.259230
 H   -1.882152    1.553265    1.674969
 H   -4.850952    2.326151    1.475731
 H   -4.090106    1.599577    2.889594
 H   -3.599856    3.223131    2.360640
 H    3.498894    0.075804   -2.668819
 H   -0.000149   -0.841074    1.076523
 H    0.473833   -3.014795    0.008900
 H   -0.098313   -2.407818   -1.546257
 H   -1.791363   -2.771966    0.994569
 H   -1.894025   -3.756875   -0.465889
 H   -3.704918   -1.970398   -0.354162
 H   -2.646076   -1.778235   -1.771328
 H   -0.930184    0.041511   -1.691900
 H   -0.860339    1.065442   -0.253925
 H    6.366705    1.754355    0.112502
 H    5.779050    1.059236   -1.348843
