39 
6qi4_ligand_aiqm1.xyz
 C  -10.645155  -20.032922  -14.336462
 N  -14.058634  -18.370145  -12.762433
 C  -10.922376  -20.063943  -12.979260
 N  -10.743318  -17.866040   -9.273690
 C  -12.116802  -19.473900  -12.526032
 N  -11.830061  -17.122564   -8.983113
 C  -12.720358  -19.317416  -11.227090
 N  -15.885542  -12.375598   -7.348837
 C  -13.891824  -18.642286  -11.422358
 C  -12.984398  -18.868888  -13.459245
 C  -12.705974  -18.835786  -14.829719
 C  -11.527765  -19.426335  -15.250625
 C  -12.166099  -19.784586   -9.914363
 C  -10.797200  -19.190641   -9.676151
 C  -11.629755  -15.890230   -8.694076
 C  -12.746769  -15.009712   -8.348962
 C  -12.486823  -13.649583   -8.102439
 C  -13.525873  -12.802961   -7.776830
 C  -14.831408  -13.304828   -7.693671
 C  -15.108745  -14.661002   -7.934808
 C  -14.043628  -15.505671   -8.262779
 O   -9.755923  -19.788654   -9.842380
 O  -16.332179  -15.202021   -7.873627
 O  -17.042783  -12.812828   -7.274698
 O  -15.594283  -11.215009   -7.148479
 H   -9.732658  -20.481425  -14.705167
 H  -14.850580  -17.904329  -13.161404
 H  -10.232578  -20.526114  -12.285264
 H   -9.813360  -17.474096   -9.213041
 H  -14.635269  -18.330956  -10.704448
 H  -13.383657  -18.368628  -15.533460
 H  -11.279180  -19.421109  -16.303760
 H  -12.843989  -19.500755   -9.108367
 H  -12.029980  -20.865348   -9.914178
 H  -10.628394  -15.456346   -8.694359
 H  -11.477730  -13.271216   -8.170604
 H  -13.366885  -11.751797   -7.581118
 H  -14.250686  -16.551636   -8.444765
 H  -16.943377  -14.479699   -7.631937
