50 
6qi7_ligand_xtb.xyz
 C  -45.146257   67.090108   -5.867071
 O  -45.097559   65.950377   -5.144529
 O  -44.806420   67.099531   -7.012019
 C  -45.659461   68.295755   -5.103555
 C  -45.637753   69.560359   -5.958236
 C  -46.204095   70.760064   -5.203657
 C  -46.051921   72.076243   -5.967621
 C  -46.765170   72.123505   -7.319611
 C  -48.278605   71.947127   -7.218118
 C  -48.964124   72.166068   -8.565039
 C  -50.475248   71.965321   -8.471869
 C  -51.213675   72.296795   -9.768950
 C  -50.904332   71.328718  -10.908859
 C  -51.743597   71.626779  -12.149358
 C  -51.433863   70.658796  -13.289352
 C  -52.172668   70.989175  -14.586458
 C  -53.682681   70.777742  -14.498995
 C  -54.360083   71.011956  -15.843909
 H  -45.398444   66.072391   -4.234861
 H  -46.682336   68.082884   -4.775526
 H  -45.042376   68.431780   -4.209558
 H  -44.609786   69.765444   -6.261554
 H  -46.215215   69.374278   -6.863398
 H  -47.257651   70.585941   -4.977207
 H  -45.678151   70.859749   -4.249869
 H  -46.435606   72.884668   -5.339951
 H  -44.987924   72.263415   -6.131454
 H  -46.556971   73.094455   -7.776392
 H  -46.353505   71.360210   -7.981441
 H  -48.512532   70.941074   -6.865534
 H  -48.677251   72.657383   -6.489148
 H  -48.757143   73.180142   -8.915402
 H  -48.542938   71.470192   -9.292320
 H  -50.686118   70.930187   -8.192476
 H  -50.863991   72.606456   -7.676170
 H  -52.288949   72.273530   -9.573209
 H  -50.958458   73.312999  -10.078912
 H  -49.847212   71.393614  -11.171754
 H  -51.102773   70.306615  -10.577222
 H  -52.800951   71.562055  -11.886606
 H  -51.545028   72.648923  -12.481027
 H  -50.358699   70.683369  -13.484902
 H  -51.687692   69.642340  -12.978902
 H  -51.969434   72.026629  -14.862901
 H  -51.778527   70.353348  -15.383502
 H  -53.883733   69.757167  -14.164785
 H  -54.109144   71.460278  -13.762188
 H  -55.434337   70.861191  -15.764410
 H  -54.180911   72.028254  -16.188587
 H  -53.971702   70.324622  -16.592628
