50 
6qi7_ligand_aiqm1.xyz
 C  -45.474914   67.088246   -6.095014
 O  -45.569051   65.908585   -5.424460
 O  -45.107418   67.094841   -7.234358
 C  -45.861633   68.308117   -5.287073
 C  -45.749900   69.608565   -6.069018
 C  -46.157671   70.810896   -5.227844
 C  -45.977632   72.148418   -5.945745
 C  -46.718009   72.262839   -7.278516
 C  -48.217619   72.011697   -7.178029
 C  -48.944560   72.225536   -8.498255
 C  -50.441185   71.956859   -8.402457
 C  -51.211443   72.243105   -9.688585
 C  -50.837736   71.336284  -10.854688
 C  -51.681800   71.586375  -12.096936
 C  -51.306944   70.680306  -13.263187
 C  -52.087246   70.956671  -14.545556
 C  -53.578965   70.655356  -14.446394
 C  -54.296371   70.865125  -15.774970
 H  -45.875284   66.069584   -4.527707
 H  -46.887407   68.168002   -4.929381
 H  -45.222003   68.340002   -4.398033
 H  -44.724632   69.731591   -6.424874
 H  -46.374187   69.545657   -6.961556
 H  -47.202362   70.694207   -4.915016
 H  -45.564310   70.821189   -4.307320
 H  -46.313910   72.946970   -5.277580
 H  -44.911252   72.318890   -6.121638
 H  -46.551231   73.265404   -7.682816
 H  -46.283612   71.567336   -8.005199
 H  -48.396793   70.986525   -6.832634
 H  -48.644602   72.671504   -6.413571
 H  -48.782997   73.254820   -8.838920
 H  -48.497442   71.576593   -9.258738
 H  -50.600379   70.911425   -8.110703
 H  -50.859891   72.567200   -7.595837
 H  -52.282459   72.140223   -9.488093
 H  -51.052673   73.288646   -9.980030
 H  -49.779850   71.472841  -11.105939
 H  -50.947532   70.289599  -10.548839
 H  -52.740267   71.449294  -11.846904
 H  -51.572565   72.633480  -12.402203
 H  -50.237972   70.791248  -13.468571
 H  -51.456428   69.634490  -12.968743
 H  -51.950881   72.005605  -14.835491
 H  -51.660801   70.356326  -15.354766
 H  -53.713524   69.622284  -14.112126
 H  -54.036322   71.288411  -13.680983
 H  -55.362334   70.650710  -15.692570
 H  -54.185702   71.896845  -16.114695
 H  -53.881301   70.215276  -16.548437
