15 
6qmu_ligand_ani-2x.xyz
 C    8.733859   -3.437205   30.507276
 C    9.442511   -2.239587   30.437248
 C   10.695736   -2.255813   29.848833
 C   11.273108   -3.407511   29.328636
 C   10.549438   -4.587957   29.409364
 C    9.285464   -4.612632   29.993909
 N   11.449190   -0.991985   29.772358
 O    7.504641   -3.396275   31.089892
 O   12.551085   -1.023472   29.252253
 O   10.926856    0.007971   30.232937
 H    7.118114   -4.280537   31.077804
 H    9.020745   -1.323640   30.833428
 H   12.257467   -3.361736   28.879242
 H   10.974807   -5.504375   29.011312
 H    8.726980   -5.545244   30.051509
