42 
6qqt_ligand_xtb.xyz
 C  -23.565285   21.187960  -11.235398
 C  -22.342130   23.729462   -9.973327
 C  -21.893547   23.355915   -7.631791
 C  -21.049210   24.216017  -10.124656
 C  -25.424411   22.368044  -10.979627
 C  -25.821497   21.064714  -10.978111
 C  -20.190730   17.585081  -11.706864
 N  -17.836509   16.724219  -11.918361
 C  -18.826410   17.689356  -11.864137
 N  -18.544696   19.013285  -11.879526
 N  -19.642763   19.768195  -11.732489
 C  -20.657370   18.918667  -11.627488
 C  -22.023038   19.391477  -11.462999
 C  -23.095903   18.484484  -11.374863
 C  -24.392458   18.909158  -11.215515
 C  -24.648846   20.278952  -11.141293
 N  -24.071140   22.456258  -11.143293
 C  -23.286414   23.659992  -11.151196
 C  -22.748698   23.304124   -8.718813
 C  -20.602509   23.846494   -7.788420
 O  -19.676923   23.947422   -6.793554
 C  -20.024856   23.502762   -5.505541
 C  -20.190253   24.279231   -9.049267
 C  -22.258168   20.757545  -11.392319
 H  -22.246267   23.009345   -6.673302
 H  -20.710912   24.546939  -11.095979
 H  -26.016754   23.259317  -10.881176
 H  -26.825335   20.702586  -10.874584
 H  -20.758202   16.679902  -11.652689
 H  -18.178489   15.815260  -12.191440
 H  -17.010902   16.995694  -12.432832
 H  -17.640203   19.450782  -11.943221
 H  -22.891633   17.426364  -11.432670
 H  -25.203538   18.198398  -11.147701
 H  -22.710118   23.715149  -12.082659
 H  -23.974802   24.512577  -11.126865
 H  -23.747632   22.915379   -8.582763
 H  -19.141563   23.663838   -4.889301
 H  -20.861403   24.076839   -5.093380
 H  -20.278300   22.437708   -5.502572
 H  -19.185100   24.654075   -9.159189
 H  -21.427083   21.441034  -11.451828
