38 
6qqz_ligand_xtb.xyz
 C  -22.978153   18.401768  -11.641584
 C  -23.493345   21.064064  -11.178696
 C  -22.271980   23.496267   -9.709436
 C  -20.583995   23.392213   -7.582222
 C  -20.079080   23.802358   -8.806492
 C  -20.942186   23.853114   -9.888330
 C  -25.715678   20.842741  -10.750791
 N  -17.734616   16.917588  -12.844302
 C  -18.715467   17.833450  -12.586274
 N  -18.481394   19.148317  -12.406221
 N  -19.595704   19.828788  -12.077340
 C  -20.581601   18.949838  -12.044673
 C  -20.081323   17.647573  -12.364817
 C  -20.721808   16.415910  -12.490334
 N  -21.174353   15.368008  -12.632896
 C  -21.939915   19.348288  -11.722872
 C  -24.264890   18.769360  -11.331420
 C  -24.543934   20.115514  -11.092111
 C  -22.196805   20.694094  -11.489601
 N  -24.019258   22.299891  -10.912798
 C  -23.262416   23.519691  -10.847763
 C  -22.663449   23.095542   -8.434920
 N  -21.846865   23.047044   -7.400341
 C  -25.351361   22.151027  -10.646366
 H  -22.754431   17.362501  -11.824733
 H  -19.953248   23.334873   -6.705073
 H  -19.039565   24.071033   -8.912961
 H  -20.587541   24.165268  -10.861229
 H  -26.697571   20.439236  -10.603824
 H  -18.064300   16.018032  -13.157609
 H  -16.906736   17.250808  -13.311834
 H  -17.599112   19.630944  -12.458613
 H  -25.049291   18.029995  -11.271386
 H  -21.388109   21.404094  -11.549708
 H  -22.729973   23.672496  -11.794455
 H  -23.963473   24.350106  -10.710622
 H  -23.685343   22.795522   -8.239207
 H  -25.953733   23.007643  -10.406148
