38 
6qr0_ligand_aiqm1.xyz
 C  -23.103646   18.142454  -11.736278
 C  -23.499895   20.829085  -11.233523
 C  -22.344264   23.398531   -9.592055
 C  -20.675306   24.532739   -8.289044
 C  -21.411928   24.427200   -9.462154
 C  -25.724161   20.704779  -10.725642
 N  -17.802660   16.528476  -12.868091
 C  -18.816448   17.447510  -12.682176
 N  -18.620053   18.770598  -12.768140
 N  -19.724086   19.498435  -12.472255
 C  -20.671114   18.607454  -12.197887
 C  -20.147885   17.282436  -12.324191
 C  -20.748714   16.014308  -12.127234
 N  -21.229081   14.965793  -11.981433
 C  -22.020154   19.049879  -11.834063
 C  -24.370568   18.569922  -11.384843
 C  -24.585772   19.931668  -11.120130
 C  -22.213139   20.407100  -11.584211
 N  -23.959461   22.094278  -10.941085
 C  -23.155525   23.289403  -10.865351
 C  -22.482975   22.517917   -8.519562
 C  -21.693197   22.711341   -7.386951
 N  -20.799707   23.696066   -7.252710
 C  -25.298554   22.004224  -10.623449
 H  -22.956206   17.091974  -11.942238
 H  -19.947914   25.328125   -8.176170
 H  -21.255254   25.141370  -10.262412
 H  -26.725339   20.357463  -10.538367
 H  -18.134100   15.575947  -12.829100
 H  -17.249209   16.682492  -13.696857
 H  -17.752840   19.246067  -12.942289
 H  -25.181420   17.857314  -11.314563
 H  -21.383159   21.095280  -11.659225
 H  -22.485408   23.324318  -11.724691
 H  -23.824904   24.146998  -10.941845
 H  -23.183889   21.696163   -8.560415
 H  -21.783943   22.035984   -6.543855
 H  -25.838123   22.896910  -10.343515
