42 
6qrc_ligand_dft.xyz
 C  -24.516414  -20.205103   11.316397
 C  -22.204755  -23.397491    9.462761
 C  -20.519128  -24.270446    7.980944
 C  -22.553132  -22.448441    8.502680
 C  -23.091724  -20.505434    6.563357
 C  -25.644246  -21.031081   10.992854
 N  -17.850423  -16.362880   12.475982
 C  -18.825691  -17.355196   12.321818
 N  -18.518565  -18.659715   12.516371
 N  -19.577178  -19.483245   12.372282
 C  -20.590698  -18.674039   12.079662
 C  -20.172240  -17.318459   12.031790
 C  -21.935664  -19.218536   11.823944
 C  -23.063841  -18.366406   11.838436
 C  -24.336832  -18.840526   11.587029
 C  -23.381922  -21.048534   11.329487
 C  -22.092146  -20.574291   11.563308
 N  -23.804966  -22.331202   11.045468
 C  -22.936939  -23.456710   10.794374
 C  -21.184451  -24.308359    9.204850
 C  -20.853575  -23.326264    7.022249
 C  -21.871264  -22.405525    7.286521
 O  -22.127565  -21.503797    6.305703
 C  -25.167000  -22.298952   10.829076
 H  -19.723153  -24.980561    7.776488
 H  -23.344245  -21.741937    8.722319
 H  -23.105040  -19.867053    5.679086
 H  -24.089832  -20.936898    6.712382
 H  -22.825068  -19.906205    7.442999
 H  -26.676662  -20.722989   10.908729
 H  -17.109639  -16.430802   11.786203
 H  -18.258756  -15.438138   12.429442
 H  -17.640172  -19.032495   12.837897
 H  -20.754578  -16.445527   11.777172
 H  -22.925745  -17.313220   12.064271
 H  -25.187290  -18.164747   11.600229
 H  -21.223262  -21.223278   11.531765
 H  -23.551546  -24.362151   10.842656
 H  -22.210074  -23.528191   11.611806
 H  -20.905946  -25.043292    9.955945
 H  -20.337325  -23.275127    6.069510
 H  -25.690307  -23.211756   10.577757
