42 
6qrc_ligand_aiqm1.xyz
 C  -24.447798  -20.164672   11.304538
 C  -22.223591  -23.468607    9.426086
 C  -20.822911  -24.630475    7.844490
 C  -22.503061  -22.498170    8.461437
 C  -22.976702  -20.590949    6.500134
 C  -25.558895  -21.012019   10.993950
 N  -17.924294  -16.204138   12.814270
 C  -18.866226  -17.193681   12.490913
 N  -18.465258  -18.469742   12.303288
 N  -19.482987  -19.314305   12.040334
 C  -20.572359  -18.540253   12.060196
 C  -20.235883  -17.189760   12.333900
 C  -21.896640  -19.112111   11.803327
 C  -23.046243  -18.283696   11.812450
 C  -24.306856  -18.791891   11.567117
 C  -23.295529  -20.985411   11.307628
 C  -22.013309  -20.475189   11.548565
 N  -23.691043  -22.276697   11.039391
 C  -22.811964  -23.402841   10.821570
 C  -21.382574  -24.536370    9.115278
 C  -21.092056  -23.671265    6.879573
 C  -21.934541  -22.601555    7.193291
 O  -22.149535  -21.701563    6.194673
 C  -25.053245  -22.277104   10.832599
 H  -20.168826  -25.458839    7.604306
 H  -23.151747  -21.672233    8.699869
 H  -23.010515  -19.987822    5.597497
 H  -23.987313  -20.911927    6.761991
 H  -22.560280  -20.001637    7.319093
 H  -26.595200  -20.736290   10.900168
 H  -17.349696  -15.962871   12.017985
 H  -18.384507  -15.366348   13.138144
 H  -17.532168  -18.826148   12.400114
 H  -20.888235  -16.336307   12.419973
 H  -22.931518  -17.226869   12.015772
 H  -25.171274  -18.139206   11.577644
 H  -21.131166  -21.098580   11.531523
 H  -23.380117  -24.313243   11.017903
 H  -22.006399  -23.363454   11.555380
 H  -21.163072  -25.290513    9.860714
 H  -20.663595  -23.728353    5.888286
 H  -25.549873  -23.201896   10.578640
