65 
6qrd_ligand_ani-2x.xyz
 C  -22.469708  -20.833236   11.405196
 C  -24.179360  -18.591078   11.142608
 C  -26.001554  -20.434101   10.708541
 C  -23.122405  -23.146427    8.554699
 C  -22.176787  -23.379054    7.562291
 C  -21.051723  -24.162758    7.815712
 C  -17.536241  -22.490571    6.711456
 C  -16.038856  -22.282909    4.807386
 N  -17.280891  -18.045823   12.576869
 C  -18.451874  -18.690928   12.237124
 N  -18.519656  -20.021540   12.065643
 N  -19.768975  -20.474275   11.815410
 C  -20.536180  -19.401164   11.807668
 C  -19.752486  -18.229211   12.081462
 C  -20.112499  -16.860844   12.211983
 N  -20.379014  -15.736446   12.320646
 C  -21.975271  -19.544537   11.540357
 C  -23.824751  -20.984071   11.136330
 C  -24.703626  -19.886314   10.994905
 C  -22.836788  -18.431511   11.409737
 C  -25.858222  -21.792589   10.685440
 N  -24.551884  -22.140410   10.942691
 C  -23.990485  -23.474025   10.924624
 C  -22.969535  -23.707364    9.822937
 C  -20.038044  -24.426746    6.722955
 N  -18.697099  -24.644582    7.249179
 C  -18.064704  -23.442574    7.787121
 N  -16.606570  -23.180402    5.820170
 C  -15.034581  -23.024657    3.922150
 C  -15.351107  -21.082745    5.461984
 C  -17.261298  -24.342618    5.222036
 C  -17.785126  -25.281261    6.310405
 C  -20.895489  -24.718715    9.085345
 C  -21.848123  -24.495331   10.072657
 H  -21.793980  -21.677014   11.495452
 H  -24.820704  -17.720195   11.045132
 H  -26.915567  -19.879917   10.542485
 H  -23.980199  -22.510363    8.349678
 H  -22.316905  -22.938715    6.576824
 H  -17.015294  -21.669140    7.210770
 H  -18.385551  -22.047018    6.151739
 H  -16.848679  -21.896229    4.155108
 H  -16.444663  -18.403615   12.134369
 H  -17.339134  -17.039710   12.501537
 H  -17.776477  -20.688482   12.194133
 H  -22.437963  -17.428876   11.513707
 H  -26.587950  -22.570830   10.496167
 H  -24.833984  -24.165203   10.827302
 H  -23.517728  -23.675029   11.892800
 H  -20.082472  -23.598745    5.989700
 H  -20.322222  -25.333362    6.170270
 H  -18.786398  -22.922140    8.427952
 H  -17.226135  -23.759815    8.423337
 H  -14.468237  -22.313187    3.312418
 H  -14.328127  -23.583896    4.545268
 H  -15.520325  -23.719972    3.230307
 H  -16.066864  -20.372351    5.887566
 H  -14.677833  -21.423562    6.256262
 H  -14.760101  -20.533948    4.721593
 H  -16.534492  -24.890132    4.615911
 H  -18.283366  -26.147399    5.856754
 H  -20.009939  -25.312707    9.293256
 H  -21.711113  -24.943289   11.055413
 H  -18.089046  -24.043714    4.545869
 H  -16.931638  -25.664630    6.885206
