25 
6qrf_ligand_ani-2x.xyz
 C  -22.976615   20.423693  -11.221326
 C  -23.287051   21.190329   -8.553691
 C  -23.545540   19.546767  -10.298502
 O  -20.178879   20.198435  -12.504523
 C  -20.636846   19.090517  -12.672190
 C  -19.831931   17.867088  -12.792116
 C  -20.265330   16.576840  -13.030182
 N  -19.155071   15.815649  -13.057717
 N  -18.019917   16.508828  -12.855900
 C  -18.424979   17.757599  -12.694445
 O  -21.958949   18.830234  -12.774337
 C  -22.809581   19.987009  -12.658222
 C  -22.553233   21.680893  -10.795255
 C  -22.709015   22.066546   -9.466384
 C  -23.703607   19.928600   -8.970610
 H  -23.411514   21.488234   -7.514984
 H  -23.867263   18.560880  -10.628827
 H  -21.252952   16.164778  -13.180322
 H  -19.094206   14.820702  -13.208125
 H  -17.710065   18.548198  -12.513634
 H  -22.403638   20.796654  -13.269624
 H  -23.760327   19.654228  -13.084077
 H  -22.079340   22.352235  -11.509812
 H  -22.377888   23.050917   -9.144073
 H  -24.154264   19.240150   -8.259122
