35 
6qrg_ligand_aiqm1.xyz
 C  -20.277485   17.586581  -12.251061
 C  -18.866573   17.555448  -12.160563
 O  -20.712018   19.906358  -12.476472
 C  -21.118882   18.774585  -12.387844
 O  -22.430991   18.446115  -12.419044
 C  -23.320977   19.582602  -12.488079
 C  -23.489329   20.232461  -11.140781
 C  -23.020950   21.520798  -10.903338
 C  -23.188882   22.092919   -9.640188
 C  -23.814249   21.391674   -8.621726
 C  -24.280496   20.095009   -8.860396
 O  -24.881821   19.475409   -7.801767
 C  -25.298562   18.149082   -7.994644
 C  -25.880515   17.641957   -6.695872
 O  -26.273001   16.366208   -6.874763
 C  -26.847438   15.776007   -5.699442
 O  -25.990303   18.243327   -5.667500
 C  -24.121828   19.515303  -10.117400
 C  -20.664860   16.261556  -12.176972
 N  -19.530217   15.552811  -12.054980
 N  -18.415628   16.314681  -12.040986
 H  -18.188671   18.390650  -12.178144
 H  -22.943695   20.287368  -13.226889
 H  -24.264029   19.157490  -12.830993
 H  -22.502434   22.060459  -11.684535
 H  -22.819043   23.091533   -9.448013
 H  -23.949410   21.816968   -7.636778
 H  -26.068485   18.069554   -8.770520
 H  -24.467672   17.495499   -8.281109
 H  -27.116484   14.763650   -5.980912
 H  -26.122913   15.773023   -4.888399
 H  -27.725129   16.337606   -5.387993
 H  -24.467650   18.510277  -10.321111
 H  -21.637782   15.805352  -12.204095
 H  -19.432599   14.557681  -11.975689
