28 
6r0s_ligand_aiqm1.xyz
 O    0.095249    2.065945    2.026955
 C    0.314974    1.255917    1.163345
 N   -0.633921    0.732965    0.284788
 C   -2.060544    0.903873    0.449525
 C   -2.799873    1.295189   -0.826119
 C   -3.808325    0.177820   -1.058750
 O   -4.604251    0.079910   -1.952408
 N   -3.668573   -0.735881   -0.019799
 C   -2.662195   -0.450354    0.861352
 O   -2.280961   -1.126615    1.779641
 C    1.599249    0.603048    0.768176
 C    1.354806   -0.261266   -0.295689
 C   -0.125888   -0.257518   -0.551788
 O   -0.814828   -0.953811   -1.251662
 C    2.859465    0.766735    1.319625
 C    3.905495    0.015945    0.777280
 C    3.686469   -0.844625   -0.297211
 C    2.410544   -0.965853   -0.840725
 N    2.252569   -1.804461   -2.040857
 O    1.542534   -1.358771   -2.926019
 O    2.878185   -2.849547   -2.074269
 H   -2.201191    1.608551    1.262986
 H   -3.335486    2.236973   -0.738463
 H   -2.140478    1.351606   -1.689250
 H   -4.167191   -1.611016   -0.012997
 H    3.011643    1.446365    2.146208
 H    4.900881    0.101584    1.191473
 H    4.491543   -1.422509   -0.727847
