28 
6r0s_ligand_ani-2x.xyz
 O    0.104058    2.081118    1.943987
 C    0.318694    1.214184    1.125561
 N   -0.646694    0.558371    0.366590
 C   -2.068747    0.779190    0.507746
 C   -2.766372    1.326177   -0.745936
 C   -3.880591    0.338405   -1.058987
 O   -4.687711    0.403937   -1.951489
 N   -3.819954   -0.671144   -0.107146
 C   -2.801016   -0.543985    0.825174
 O   -2.570380   -1.312995    1.719619
 C    1.610942    0.612356    0.708570
 C    1.374338   -0.326189   -0.297139
 C   -0.104035   -0.417436   -0.489428
 O   -0.789035   -1.139208   -1.170597
 C    2.872531    0.863242    1.219937
 C    3.945067    0.140219    0.707956
 C    3.743673   -0.796087   -0.309346
 C    2.474617   -0.997372   -0.829192
 N    2.374066   -1.889865   -1.991897
 O    1.596406   -1.577160   -2.872732
 O    3.109269   -2.860831   -2.007972
 H   -2.178559    1.451388    1.360889
 H   -3.195480    2.317075   -0.588223
 H   -2.091623    1.384815   -1.601358
 H   -4.442255   -1.469641   -0.122007
 H    3.000758    1.600832    2.006427
 H    4.947175    0.298015    1.093726
 H    4.570759   -1.367210   -0.715233
