28 
6r0s_ligand_dft.xyz
 O   -0.359598    3.080145   -0.364556
 C    0.066528    1.954561   -0.285657
 N   -0.701467    0.789139   -0.279165
 C   -2.137478    0.790417   -0.192174
 C   -2.884420   -0.041390   -1.242277
 C   -3.992144   -0.737479   -0.463579
 O   -4.917108   -1.370718   -0.901671
 N   -3.737132   -0.526903    0.890052
 C   -2.617053    0.232365    1.161144
 O   -2.129887    0.448838    2.240237
 C    1.481691    1.494555   -0.183731
 C    1.496924    0.104485   -0.123106
 C    0.067445   -0.367936   -0.104304
 O   -0.396732   -1.466446    0.060329
 C    2.631834    2.261570   -0.145059
 C    3.849509    1.594863   -0.015363
 C    3.893769    0.204207    0.055757
 C    2.718891   -0.539094   -0.017473
 N    2.833834   -2.003303   -0.026609
 O    2.075014   -2.613370   -0.754610
 O    3.710103   -2.490223    0.670344
 H   -2.435444    1.843353   -0.232605
 H   -3.305448    0.547458   -2.058648
 H   -2.242532   -0.817318   -1.668668
 H   -4.276491   -0.979452    1.616214
 H    2.572685    3.343014   -0.204046
 H    4.776243    2.156582    0.030313
 H    4.837017   -0.318726    0.161828
