28 
6r0u_ligand_aiqm1.xyz
 C    3.737330   -0.099627    0.539361
 C    3.919580    0.262079   -0.786519
 C    2.836977    0.456347   -1.661539
 C   -3.760276   -0.686698    0.610840
 C    1.580002    0.273706   -1.128226
 C    0.239535    0.409411   -1.774255
 C   -2.107208    0.226383   -0.905402
 C   -2.880373   -1.048870   -0.576212
 C   -2.612504    1.269446    0.104130
 N    2.244945   -0.720761    2.364996
 N   -0.679031    0.102998   -0.767865
 C    2.443387   -0.293442    1.078450
 N   -3.576840    0.664832    0.870317
 O   -0.694005   -0.394751    1.475190
 C   -0.071808   -0.166042    0.458338
 C    1.379672   -0.085412    0.206652
 O   -0.054994    0.701029   -2.907044
 O   -4.507588   -1.404152    1.220227
 O   -2.212788    2.397954    0.210342
 H    4.599274   -0.244152    1.179561
 H    4.928455    0.398639   -1.154616
 H    2.975358    0.737985   -2.693508
 H   -2.297529    0.594597   -1.909111
 H   -2.227297   -1.869919   -0.289743
 H   -3.516536   -1.382925   -1.392289
 H    2.991508   -0.576729    3.021005
 H    1.310978   -0.632569    2.732343
 H   -3.988125    1.110347    1.673980
