31 
6r0v_ligand_aiqm1.xyz
 C    3.079661   -1.339482   -0.825921
 C   -1.721696    1.045731    0.646614
 C   -1.284067   -0.275330    0.426931
 C   -2.226905   -1.260888    0.130326
 C    0.149062   -0.745440    0.438583
 C   -3.073901    1.370241    0.493588
 C   -4.004304    0.396351    0.164010
 C   -3.556803   -0.906053    0.005724
 C   -0.856216    2.184117    1.094509
 N    4.378479    0.607276   -1.022752
 N    1.031409    0.021829   -0.268106
 C    4.419671   -0.771425   -1.264982
 N   -4.546099   -1.955398   -0.318253
 C    2.439544   -0.205072   -0.023467
 C    3.218407    1.036019   -0.432167
 O    5.357103   -1.342778   -1.750370
 O    2.857081    2.173388   -0.248561
 O    0.465712   -1.805296    0.946039
 O   -5.716219   -1.617081   -0.373386
 O   -4.125495   -3.081741   -0.511541
 O   -1.119834    3.340942    0.898151
 O    0.232550    1.781928    1.778413
 H    3.210811   -2.257132   -0.262031
 H    2.488119   -1.561092   -1.714561
 H   -1.921085   -2.289454    0.001394
 H   -3.377761    2.397254    0.643021
 H   -5.053019    0.623063    0.040111
 H    5.110306    1.228611   -1.327818
 H    0.792880    0.994958   -0.389422
 H    2.612689   -0.365365    1.042902
 H    0.739920    2.577218    1.983321
