28 
6r11_ligand_aiqm1.xyz
 C   -2.968763   -0.655308    0.707913
 C   -0.294871   -0.326836   -0.465608
 C    1.158670   -0.277415   -0.139180
 C    3.670563    0.168825    0.877491
 C    1.331208    0.605880    0.925633
 C    0.009938    1.154118    1.310133
 C    2.212129   -0.951517   -0.720625
 C    3.500235   -0.719683   -0.198371
 C    2.592911    0.841585    1.447887
 N   -3.873316   -0.850772   -0.304983
 N   -0.897145    0.565552    0.416353
 C   -2.326557    0.724080    0.490167
 N    4.604479   -1.318529   -0.782287
 C   -3.906267    0.158536   -1.257378
 C   -2.963738    1.258670   -0.790706
 O   -2.706456   -1.421621    1.596060
 O   -4.586713    0.142796   -2.248002
 O   -0.901976   -0.969798   -1.290090
 O   -0.296529    1.941370    2.171712
 H    4.667725    0.338876    1.264981
 H    2.052326   -1.626395   -1.551987
 H    2.734792    1.523992    2.274434
 H   -4.357454   -1.723347   -0.439510
 H   -2.530905    1.341862    1.359430
 H    5.425227   -1.383457   -0.204654
 H    4.424790   -2.157403   -1.307757
 H   -3.542126    2.165424   -0.630652
 H   -2.232178    1.450416   -1.572404
