29 
6r12_ligand_ani-2x.xyz
 C    2.510044   -0.456734    0.846525
 C   -0.023974    1.145081   -1.315118
 C   -1.540450    1.210797   -1.155856
 C   -3.315835   -1.137346    1.265280
 C   -2.161544   -0.028292   -0.554872
 C   -2.118881   -1.242213   -1.244900
 C   -2.670472   -2.391293   -0.686773
 C   -3.268690   -2.341951    0.569809
 C   -2.765868    0.012210    0.702059
 N    3.755819    0.012756    1.222299
 N    0.645594    0.590626   -0.267707
 C    2.065962    0.378272   -0.349744
 C    4.120682    1.207804    0.597333
 C    2.947078    1.630289   -0.269226
 O    5.167496    1.779862    0.763698
 O    1.887034   -1.349703    1.368874
 O    0.552569    1.592755   -2.294691
 H   -1.783367    2.080331   -0.531226
 H   -1.936801    1.417323   -2.153978
 H   -3.780363   -1.089734    2.247334
 H   -1.648216   -1.280375   -2.225825
 H   -2.632180   -3.330007   -1.234191
 H   -3.697678   -3.241131    1.005110
 H   -2.799898    0.954800    1.245632
 H    4.321339   -0.417240    1.944170
 H    0.160670    0.039288    0.430520
 H    2.315447   -0.176758   -1.262137
 H    3.277261    1.990703   -1.241779
 H    2.417123    2.439982    0.239079
