30 
6r1d_ligand_dft.xyz
 O   -2.895706    2.524659    0.093975
 C   -3.308596    1.392826    0.007597
 N   -4.583595    0.954582    0.293344
 C   -4.726266   -0.437205    0.315948
 O   -5.759170   -1.013125    0.539792
 C   -3.349007   -1.022619    0.045179
 C   -2.514012    0.167005   -0.444246
 N   -1.172907    0.261484    0.069970
 C   -0.242769   -0.639767   -0.364845
 O   -0.510511   -1.657688   -0.971655
 O    0.992860   -0.251378   -0.008895
 C    2.047713   -1.152978   -0.389908
 C    3.356673   -0.471582   -0.108208
 C    4.071711   -0.752404    1.055180
 C    5.276194   -0.105658    1.318070
 C    5.772942    0.831827    0.417626
 C    5.063237    1.120435   -0.746075
 C    3.862397    0.470212   -1.006251
 H   -5.334291    1.581416    0.551261
 H   -2.947376   -1.411762    0.986607
 H   -3.399634   -1.848140   -0.664234
 H   -2.511996    0.175855   -1.544526
 H   -0.852142    1.184255    0.334417
 H    1.942945   -2.081588    0.179099
 H    1.936522   -1.394282   -1.450550
 H    3.683676   -1.482848    1.760699
 H    5.825563   -0.334021    2.226462
 H    6.713679    1.335308    0.619512
 H    5.448034    1.849628   -1.452745
 H    3.309450    0.693407   -1.915326
