26 
6r1x_ligand_ani-2x.xyz
 C   -1.806446   -0.569228   -0.234712
 C    0.507693   -1.225638   -0.505386
 C    1.918031   -0.819651   -0.765973
 C    2.550538    0.305107   -0.411148
 C    3.921037    0.596260   -0.968422
 C    2.040617    1.342712    0.559185
 N   -3.736260    0.543936    0.469883
 N   -0.408435   -0.229952   -0.281405
 C   -2.302913   -1.215476    1.062802
 O   -2.349175    1.681366   -1.002298
 C   -2.628975    0.708768   -0.341878
 C   -3.660126   -0.575467    1.304101
 O   -4.518169   -0.917339    2.076820
 O    0.180865   -2.404424   -0.514150
 H   -2.068870   -1.216993   -1.079377
 H    2.477728   -1.594126   -1.290257
 H    3.924518    1.551625   -1.505808
 H    4.252246   -0.188727   -1.654691
 H    4.655108    0.682521   -0.158830
 H    1.189266    0.988197    1.145118
 H    2.841707    1.627533    1.251297
 H    1.755648    2.259342    0.028440
 H   -4.494243    1.213593    0.526334
 H   -0.221576    0.710428   -0.610446
 H   -1.644735   -0.953919    1.895549
 H   -2.375181   -2.300050    1.005150
