54 
6r7d_ligand_aiqm1.xyz
 C   -2.753133    3.501832   -1.735396
 C   -3.541128    4.269143   -0.844776
 C   -3.822155    3.792227    0.410426
 C   -2.085933    0.474822    0.364841
 C   -2.339777    0.030736    1.639857
 C   -3.098166    0.822600    2.535360
 C   -3.595134    2.036075    2.140146
 C   -0.005254   -0.542420   -0.334383
 C    0.722512    0.376788    0.418734
 C    2.645176   -0.784815    0.155774
 C    4.114692   -0.937224    0.411742
 C    6.198145    0.399581    1.024288
 C    6.599780    1.792110    1.316550
 C    1.003399   -3.640841   -2.036462
 C   -4.108459   -2.282177   -0.292347
 C   -3.999880   -2.895714   -1.662999
 C   -3.336939    2.528207    0.834604
 C   -2.562717    1.750045   -0.064360
 C   -2.276802    2.272188   -1.355320
 N   -1.356039   -0.339967   -0.561256
 N    2.037364    0.265931    0.672402
 C    4.747861    0.047794    1.331065
 C    5.859573   -0.469647    2.195335
 O    6.214028    2.449064    2.252034
 O    7.468219    2.263391    0.398467
 O    4.762217   -1.826824   -0.099340
 N    2.065785   -1.739747   -0.591141
 C    0.778518   -1.624726   -0.829419
 O    0.178524   -2.565170   -1.579739
 C   -2.164655   -1.074065   -1.539150
 C   -2.778540   -2.339554   -0.989501
 H   -2.524001    3.892161   -2.718249
 H   -3.914683    5.235945   -1.155234
 H   -4.417083    4.380621    1.099092
 H   -1.947237   -0.929004    1.956980
 H   -3.289262    0.458526    3.535612
 H   -4.183436    2.637995    2.822036
 H    0.227511    1.239053    0.841297
 H    6.635546   -0.051523    0.147084
 H    1.427886   -4.183153   -1.193820
 H    1.809035   -3.268046   -2.665719
 H    0.334025   -4.277240   -2.605587
 H   -4.583427   -1.313179   -0.222189
 H   -4.274441   -2.942674    0.547391
 H   -4.403412   -2.330445   -2.493275
 H   -4.090324   -3.968153   -1.754716
 H   -1.664751    1.689324   -2.030764
 H    4.135074    0.847315    1.713513
 H    5.959279   -0.028172    3.175098
 H    6.094978   -1.518642    2.095677
 H    7.675231    3.168995    0.663535
 H   -2.965490   -0.399232   -1.853524
 H   -1.543992   -1.290169   -2.411745
 H   -2.068007   -3.059543   -0.607231
