32 
6r8p_ligand_ani-2x.xyz
 C    4.323360   -4.367143    6.880228
 N    4.355785   -5.340116    7.830205
 C    5.346423   -5.565246    8.801255
 C    6.146683   -6.864039   10.647330
 C    0.688101   -7.607373    7.181160
 C    0.283117   -6.721866    6.030430
 C   -0.898440   -6.935136    5.330439
 C   -1.283800   -6.122487    4.264041
 C   -0.469456   -5.068383    3.884726
 C    0.723875   -4.824797    4.564904
 C    1.094446   -5.644556    5.626678
 C    3.095861   -4.404802    5.978222
 C    5.175915   -6.632105    9.684937
 C    7.252872   -6.021699   10.692218
 C    6.493249   -4.775391    8.927114
 N    7.424591   -5.000679    9.853075
 O    2.247010   -5.472617    6.343497
 O    5.168504   -3.505887    6.707043
 H    3.571184   -5.974802    7.833786
 H    6.047088   -7.685012   11.351522
 H    0.791766   -7.037026    8.111192
 H   -0.060726   -8.387033    7.349729
 H    1.647714   -8.101280    6.990930
 H   -1.536961   -7.764180    5.630249
 H   -2.214844   -6.318348    3.738846
 H   -0.751434   -4.422816    3.056056
 H    1.350432   -3.994200    4.254466
 H    3.449214   -4.507120    4.944606
 H    2.587907   -3.436846    6.071976
 H    4.296050   -7.268893    9.617752
 H    8.036783   -6.169802   11.432163
 H    6.651531   -3.939319    8.253523
