35 
6r8q_ligand_aiqm1.xyz
 C    0.892198    5.033298    4.204741
 C   -0.421064    4.753939    4.587961
 C   -1.055214    5.589459    5.502484
 C   -3.051674    4.291288    5.427887
 C   -4.451985    4.242946    6.023585
 C   -5.934437    6.596046    8.459574
 C   -8.156863    4.997219    8.260183
 C   -0.404055    6.706382    6.047988
 C    0.903686    6.954303    5.643652
 C    1.558272    6.130400    4.728606
 C   -5.929522    5.461909    7.605333
 C   -8.150181    6.115093    9.096988
 N   -4.731691    5.240822    6.899298
 C   -1.107326    7.594716    7.033404
 O   -2.342853    5.397799    5.940094
 C   -7.030199    6.945247    9.215823
 C   -7.039326    4.641604    7.489311
 N   -9.392962    6.106614    9.650752
 N  -10.113402    5.060094    9.189273
 N   -9.391586    4.389323    8.360012
 O   -5.206678    3.348921    5.692577
 H    1.385062    4.384280    3.494220
 H   -0.929429    3.895781    4.172490
 H   -2.561753    3.345019    5.674354
 H   -3.163445    4.347550    4.341353
 H   -5.037213    7.205129    8.512735
 H    1.418418    7.813881    6.057379
 H    2.574499    6.348523    4.433553
 H   -3.983932    5.896073    7.054218
 H   -1.413118    7.037663    7.922292
 H   -0.449652    8.404387    7.345698
 H   -2.009756    8.032381    6.599786
 H   -7.016150    7.812085    9.860720
 H   -7.049305    3.777611    6.844771
 H   -9.816364    6.731215   10.310906
