35 
6r8q_ligand_ani-2x.xyz
 C    0.880741    5.021597    4.198111
 C   -0.431791    4.754566    4.588126
 C   -1.063075    5.589347    5.504999
 C   -3.060747    4.293925    5.425154
 C   -4.463219    4.248327    6.023174
 C   -5.934281    6.609705    8.474496
 C   -8.150586    4.996584    8.252938
 C   -0.399916    6.704893    6.050356
 C    0.906536    6.940693    5.639408
 C    1.553673    6.113412    4.721116
 C   -5.924378    5.478978    7.613629
 C   -8.155735    6.107911    9.096980
 N   -4.730157    5.249531    6.900835
 C   -1.090552    7.604805    7.043250
 O   -2.345909    5.398100    5.938906
 C   -7.038442    6.946831    9.228143
 C   -7.024235    4.656238    7.486839
 N   -9.401933    6.081839    9.639644
 N  -10.111823    5.035464    9.167473
 N   -9.384350    4.378234    8.341439
 O   -5.224807    3.355774    5.691492
 H    1.367330    4.364407    3.480990
 H   -0.945545    3.894791    4.168804
 H   -2.566066    3.345493    5.668678
 H   -3.167535    4.355447    4.335040
 H   -5.039565    7.225798    8.537330
 H    1.433692    7.799291    6.051541
 H    2.576236    6.327473    4.421804
 H   -3.980273    5.904914    7.058835
 H   -1.394593    7.055216    7.941390
 H   -0.425666    8.415021    7.357170
 H   -1.991957    8.058907    6.616146
 H   -7.034674    7.812717    9.882262
 H   -7.015043    3.796796    6.831775
 H   -9.830352    6.705975   10.305727
