38 
6r8r_ligand_xtb.xyz
 C   -0.786698    5.510960    5.690597
 C   -1.725839    8.087607    6.163654
 C   -2.601770    7.014887    6.221356
 C   -2.140346    5.728689    5.986117
 C   -4.260042    4.713253    6.378932
 C   -7.642011    5.933147    9.481063
 C   -8.248766    6.293129   10.647346
 C   -8.041025    6.874423   13.054313
 C   -6.012008    6.910291   14.075023
 C   -5.342040    6.551753   12.936725
 C   -6.074841    6.333061   11.750313
 C   -5.468085    5.961571   10.535157
 N   -5.707681    5.395323    8.174316
 C   -0.308545    4.113704    5.449138
 O   -2.924262    4.602130    5.987941
 C   -7.482672    6.501981   11.812547
 C    0.066720    6.597640    5.637251
 C   -0.392724    7.884462    5.869818
 C   -4.410202    5.109183    7.857701
 C   -6.239093    5.762217    9.416115
 N   -7.343360    7.070506   14.137625
 O   -3.480547    5.140592    8.622872
 H   -2.097621    9.083616    6.353468
 H   -3.636838    7.201621    6.465504
 H   -4.681133    3.710438    6.245239
 H   -4.813014    5.416403    5.737175
 H   -8.229842    5.772462    8.587306
 H   -9.320122    6.422271   10.693985
 H   -9.112054    7.013060   13.143258
 H   -5.490103    7.087341   15.005992
 H   -4.269387    6.433801   12.931319
 H   -4.399323    5.834547   10.494532
 H   -6.393605    5.301318    7.437286
 H   -0.547545    3.488737    6.307797
 H   -0.815161    3.686584    4.584706
 H    0.764441    4.094989    5.278446
 H    1.110901    6.433501    5.412857
 H    0.289445    8.719900    5.826212
