38 
6r8r_ligand_ani-2x.xyz
 C   -0.664580    5.386497    5.442053
 C   -1.074393    8.140760    5.784649
 C   -2.040984    7.238537    6.227170
 C   -1.839533    5.874353    6.038770
 C   -4.085527    5.249001    6.601932
 C   -7.769259    5.591935    9.654584
 C   -8.454362    5.829527   10.812123
 C   -8.406868    6.474026   13.222101
 C   -6.438076    6.955145   14.263168
 C   -5.696202    6.733214   13.135413
 C   -6.351458    6.346918   11.938530
 C   -5.652814    6.101191   10.730263
 N   -5.730586    5.460106    8.370278
 C   -0.459435    3.903289    5.282962
 O   -2.729213    4.915954    6.448020
 C   -7.757015    6.214241   11.988452
 C    0.277462    6.312768    5.009417
 C    0.083065    7.683989    5.170554
 C   -4.431894    5.716616    8.023251
 C   -6.351861    5.732120    9.605520
 N   -7.790851    6.830379   14.323642
 O   -3.637903    6.304254    8.731484
 H   -1.236200    9.207179    5.921677
 H   -2.925712    7.594338    6.745788
 H   -4.651350    4.343330    6.359268
 H   -4.375868    6.032149    5.883529
 H   -8.308336    5.299284    8.756637
 H   -9.535696    5.726134   10.849808
 H   -9.492607    6.375139   13.275174
 H   -5.958571    7.252059   15.193963
 H   -4.615418    6.848848   13.147510
 H   -4.577515    6.208446   10.693588
 H   -6.323315    5.031993    7.675758
 H   -0.479196    3.391743    6.251509
 H   -1.250489    3.456892    4.670099
 H    0.502046    3.693600    4.804739
 H    1.187317    5.949298    4.535193
 H    0.836398    8.385848    4.822424
