58 
6r8w_ligand_aiqm1.xyz
 C   -2.602405   -0.313985    1.400517
 C   -2.133177   -2.628127    2.235345
 C   -0.703964   -2.679760    2.786040
 C    1.615015   -3.129438    2.181998
 C    2.112672    0.296773    0.544663
 C    3.397495    0.159047   -0.015602
 N    4.004020    1.240289   -0.637128
 C    2.425309    2.747050    0.404121
 C    1.401667    1.620799    0.410230
 C    2.467606    2.544456   -2.091496
 C    4.057892   -1.071538    0.094004
 C   -2.353617    0.461664    0.120607
 C   -3.650695    0.950360   -0.557955
 C   -4.154491   -0.316899   -1.265303
 C   -2.838738   -0.572814   -2.016410
 C   -2.654299    0.759718   -2.763425
 C   -3.207506    1.811661   -1.756366
 O   -3.068731    0.087695    2.437635
 N   -2.202514   -1.630670    1.179528
 O   -0.408828   -2.177263    3.855679
 N    0.185068   -3.283953    1.960754
 C    2.214249   -1.991756    1.379931
 C    1.549156   -0.770867    1.238016
 C    3.326374    2.513792   -0.805466
 O    0.599066    1.698786   -0.794826
 C    1.349351    1.522126   -1.993149
 O    1.951739    3.852317   -2.316189
 C    3.465094   -2.125849    0.776308
 C   -1.750542   -1.871325   -0.099718
 O   -1.381446   -2.960002   -0.492246
 C   -1.796878   -0.571596   -0.876742
 H   -2.422726   -3.588712    1.811763
 H   -2.806173   -2.327647    3.030826
 H    2.118520   -4.064665    1.923069
 H    1.745936   -2.956502    3.250160
 H    4.784609    1.051591   -1.238145
 H    1.935674    3.719324    0.335707
 H    3.010832    2.721307    1.323864
 H    0.669625    1.743999    1.205177
 H    3.094512    2.305723   -2.953874
 H    5.040239   -1.199048   -0.347403
 H   -1.677008    1.284220    0.337106
 H   -4.333060    1.442322    0.130199
 H   -4.448862   -1.122666   -0.587544
 H   -4.979388   -0.105593   -1.945550
 H   -2.782330   -1.459511   -2.642676
 H   -1.610437    0.938354   -3.025865
 H   -3.233948    0.760904   -3.687759
 H   -2.460790    2.555025   -1.475599
 H   -4.062309    2.341967   -2.177496
 H   -0.137551   -3.534147    1.035508
 H    0.570592   -0.629581    1.691533
 H    4.078937    3.299092   -0.883318
 H    1.748829    0.503308   -2.052475
 H    0.645053    1.672927   -2.812587
 H    1.091805    3.896584   -1.888067
 H    3.998673   -3.066444    0.848550
 H   -0.792994   -0.352922   -1.229661
