58 
6r8w_ligand_xtb.xyz
 C   -2.490083   -0.200295    1.266889
 C   -2.116408   -2.488189    2.177892
 C   -0.710996   -2.634280    2.789734
 C    1.604129   -3.106721    2.177191
 C    2.217558    0.326222    0.683695
 C    3.415136    0.132755   -0.022588
 N    4.038515    1.183505   -0.650184
 C    2.645153    2.752329    0.521973
 C    1.560744    1.682265    0.645205
 C    2.401912    2.517278   -1.970514
 C    3.992441   -1.138369   -0.025289
 C   -2.299206    0.508221   -0.053276
 C   -3.639796    0.950320   -0.664667
 C   -4.180516   -0.374105   -1.206229
 C   -2.944542   -0.664830   -2.058156
 C   -2.869187    0.598201   -2.923255
 C   -3.326196    1.712468   -1.957750
 O   -2.924548    0.244696    2.292917
 N   -2.097997   -1.523918    1.095634
 O   -0.454865   -2.291376    3.921860
 N    0.178798   -3.172521    1.934897
 C    2.239214   -1.986002    1.391504
 C    1.653794   -0.726625    1.380733
 C    3.397378    2.466051   -0.777247
 O    0.634128    1.807488   -0.440167
 C    1.222417    1.574238   -1.700177
 O    1.962213    3.829089   -2.213635
 C    3.408574   -2.178947    0.667032
 C   -1.683276   -1.818502   -0.179415
 O   -1.286323   -2.907179   -0.530047
 C   -1.810116   -0.575257   -1.019622
 H   -2.459500   -3.450319    1.789035
 H   -2.796253   -2.112798    2.945701
 H    2.061856   -4.064103    1.914995
 H    1.730443   -2.931424    3.250738
 H    4.755751    0.955228   -1.319084
 H    2.206398    3.750375    0.501168
 H    3.327375    2.685779    1.369423
 H    0.944880    1.835965    1.536660
 H    2.916248    2.201735   -2.885561
 H    4.907935   -1.298032   -0.576591
 H   -1.604356    1.339719    0.071683
 H   -4.273417    1.488403    0.036816
 H   -4.365817   -1.117731   -0.432606
 H   -5.080930   -0.249174   -1.804269
 H   -2.940450   -1.597668   -2.618549
 H   -1.865201    0.766941   -3.309971
 H   -3.545356    0.512427   -3.773719
 H   -2.555886    2.465879   -1.801430
 H   -4.218910    2.214372   -2.329862
 H   -0.117073   -3.392065    0.991110
 H    0.743860   -0.552756    1.937736
 H    4.168855    3.225479   -0.950531
 H    1.553817    0.529835   -1.789057
 H    0.433559    1.762804   -2.433320
 H    1.310552    4.053256   -1.537246
 H    3.873655   -3.153804    0.651836
 H   -0.849882   -0.366434   -1.491243
