34 
6r9u_ligand_ani-2x.xyz
 C   -6.986688    7.142676  -22.758540
 C   -8.170968    7.629654  -23.587483
 C   -9.639796    5.712336  -24.226555
 C   -8.835392    4.466500  -23.884741
 C   -7.905913    4.000865  -24.832173
 C   -7.081472    2.951782  -24.500031
 C   -7.146574    2.363199  -23.244151
 C   -8.044672    2.774800  -22.294310
 C  -11.176539    4.735076  -21.927731
 C  -11.264359    6.265464  -21.791707
 C  -10.072283    7.128419  -22.202248
 N   -9.391995    6.856367  -23.357902
 O   -6.081533    2.365354  -25.231173
 C   -5.676767    1.233211  -24.466639
 O   -6.190429    1.387551  -23.145839
 C   -8.938232    3.819110  -22.635126
 N   -9.869502    4.180561  -21.672361
 O   -9.774269    8.092056  -21.507054
 H   -7.197355    7.266737  -21.691625
 H   -6.779959    6.084764  -22.954605
 H   -6.091829    7.726017  -23.003628
 H   -7.943789    7.558970  -24.656908
 H   -8.397043    8.674772  -23.355572
 H  -10.711411    5.518385  -24.264238
 H   -9.363177    6.019576  -25.240325
 H   -7.832158    4.477438  -25.806284
 H   -8.089378    2.303510  -21.315073
 H  -11.549732    4.405939  -22.904437
 H  -11.866110    4.304157  -21.193152
 H  -11.410573    6.528904  -20.741858
 H  -12.152047    6.625532  -22.330045
 H   -4.585567    1.191653  -24.429253
 H   -6.091737    0.319713  -24.916905
 H   -9.742052    3.714851  -20.789729
