34 
6r9u_ligand_xtb.xyz
 C   -6.940622    6.922931  -22.828586
 C   -8.150415    7.588071  -23.478058
 C   -9.643743    5.760165  -24.220386
 C   -8.867594    4.504050  -23.883201
 C   -8.015116    3.981612  -24.860325
 C   -7.196301    2.933800  -24.528866
 C   -7.187399    2.410189  -23.237678
 C   -8.026710    2.888798  -22.267961
 C  -11.120961    4.746659  -21.868644
 C  -11.372425    6.265491  -21.966164
 C  -10.102973    7.084332  -22.177689
 N   -9.379237    6.836998  -23.292060
 O   -6.277024    2.260782  -25.300947
 C   -5.697035    1.299072  -24.448926
 O   -6.266116    1.400188  -23.160295
 C   -8.897624    3.943123  -22.597271
 N   -9.729757    4.430807  -21.606495
 O   -9.797431    7.960024  -21.390719
 H   -7.132017    6.778268  -21.768792
 H   -6.732991    5.957360  -23.282521
 H   -6.068296    7.561266  -22.942183
 H   -7.984455    7.716795  -24.550908
 H   -8.308105    8.567743  -23.020034
 H  -10.717649    5.578188  -24.266714
 H   -9.332846    6.097406  -25.214184
 H   -7.989471    4.403457  -25.851704
 H   -8.019875    2.471182  -21.274304
 H  -11.440096    4.237303  -22.783815
 H  -11.727158    4.344394  -21.053039
 H  -11.796507    6.633133  -21.031387
 H  -12.082725    6.489818  -22.764159
 H   -4.610282    1.470370  -24.384512
 H   -5.879776    0.289449  -24.851860
 H   -9.560568    4.012673  -20.705013
