35 
6r9x_ligand_xtb.xyz
 C    4.527501   20.432957   19.048336
 C    6.805880   21.368436   18.946987
 C    8.066307   20.480140   19.038161
 C    9.151895   21.203947   18.237031
 C    8.368012   22.008076   17.204272
 C    7.187537   22.533732   18.016101
 C    1.277568   18.683703   18.268360
 C    2.020726   15.256385   19.677460
 C    0.813685   15.019378   20.318251
 C   -0.168644   15.993997   20.243351
 O    4.227224   20.831947   20.160961
 N    5.686509   20.626575   18.417825
 C    3.552125   19.607989   18.200192
 O    3.864232   19.169906   17.104662
 N    2.370414   19.460702   18.803129
 C    1.140185   17.361356   18.982216
 C    2.190097   16.447866   18.994361
 N   -0.011039   17.136427   19.597394
 H    6.481461   21.724701   19.927828
 H    7.850289   19.509501   18.589266
 H    8.364970   20.310365   20.070674
 H    9.859149   20.511483   17.783729
 H    9.705845   21.883981   18.885554
 H    8.017099   21.352706   16.405568
 H    8.957245   22.807780   16.758951
 H    7.501721   23.389646   18.613534
 H    6.345659   22.839235   17.396567
 H    1.501740   18.514965   17.210244
 H    0.341895   19.238663   18.366449
 H    2.813991   14.523427   19.708039
 H    0.640316   14.103145   20.860627
 H   -1.129259   15.861681   20.723857
 H    5.758983   20.219860   17.492001
 H    2.295714   19.853948   19.734076
 H    3.108567   16.673198   18.474586
