33 
6rih_ligand_aiqm1.xyz
 C   15.505084  -11.422956   71.672354
 C   12.732193  -12.502405   73.846343
 C   17.318624   -9.780769   71.834162
 C   17.321461   -8.287359   71.648228
 C   13.459397  -13.411199   70.524611
 C   12.084205  -11.888031   76.176831
 C   11.246466  -12.020804   77.279516
 C   14.324975  -11.951618   72.405557
 N   13.468498  -12.862319   71.875513
 C   13.879619  -11.697733   73.690731
 N   12.497694  -13.195040   72.725482
 N   16.111714  -10.386208   72.302380
 C   17.327908   -9.195479   70.453434
 O   15.873256  -11.886745   70.606517
 C   11.853331  -12.634976   75.015534
 C   10.765992  -13.516952   74.981965
 C    9.931357  -13.647352   76.084745
 C   10.167794  -12.900766   77.237170
 H   18.238060  -10.236732   72.180003
 H   18.225546   -7.752725   71.897530
 H   16.399949   -7.768890   71.876234
 H   13.150446  -12.644393   69.817626
 H   14.450888  -13.757926   70.264750
 H   12.741497  -14.225080   70.526872
 H   12.919708  -11.199794   76.220938
 H   11.436341  -11.437197   78.171397
 H   14.315774  -11.046160   74.427051
 H   15.749838  -10.111550   73.198532
 H   16.411271   -9.300508   69.890014
 H   18.238335   -9.299761   69.882019
 H   10.588541  -14.093287   74.083926
 H    9.093863  -14.332266   76.047924
 H    9.516875  -13.003624   78.095510
