45 
6rj3_ligand_ani-2x.xyz
 C   -3.249696    0.170519   -0.251108
 C   -0.158505    2.135656    0.158705
 C   -4.190827   -0.928298   -0.538485
 C   -2.807276    3.494619    0.791223
 C   -6.459283   -1.714833   -0.820644
 C   -5.990034   -2.997504   -1.091128
 C    3.180322    0.542990    0.392589
 C    4.067854   -1.569378   -0.380770
 C    4.903365   -1.636099    0.736916
 C    4.879353   -0.608948    1.683503
 C    5.794266   -2.816452    0.867211
 C   -4.620506   -3.247021   -1.081536
 C   -5.567922   -0.685666   -0.543730
 C   -3.727697   -2.219130   -0.806271
 C    3.212714   -0.490975   -0.549052
 C    4.023041    0.469602    1.504791
 C   -1.846483    0.191574   -0.342786
 C   -1.481555    1.473767    0.050216
 C    2.739847    2.607553   -0.989215
 C    2.278270    1.741680    0.188440
 N   -3.706955    1.356279    0.160526
 N   -2.634951    2.124315    0.337563
 N    0.896683    1.293854    0.007826
 O    6.561781   -2.788483    1.977002
 O    5.850365   -3.729621    0.074723
 O   -0.016788    3.337939    0.359452
 H   -3.881067    3.637633    0.913352
 H   -2.285509    3.649174    1.737424
 H   -2.397014    4.193712    0.060933
 H   -7.527551   -1.513247   -0.823836
 H   -6.690323   -3.799867   -1.306988
 H    4.100123   -2.380326   -1.101195
 H    5.529653   -0.662052    2.551135
 H   -4.245121   -4.245404   -1.289283
 H   -5.928017    0.316334   -0.327356
 H   -2.660658   -2.427098   -0.793623
 H    2.569732   -0.451996   -1.427736
 H    4.004877    1.266044    2.246914
 H   -1.210302   -0.608827   -0.700440
 H    2.716774    2.032084   -1.921523
 H    2.080279    3.472278   -1.090854
 H    3.763263    2.955438   -0.817227
 H    2.315370    2.363210    1.090486
 H    0.725985    0.297813    0.020119
 H    7.089823   -3.602840    1.944736
