45 
6rj3_ligand_aiqm1.xyz
 C   -3.224090    0.187089   -0.204470
 C   -0.148049    2.122920    0.388247
 C   -4.126089   -0.941643   -0.467053
 C   -2.820385    3.635797    0.379845
 C   -6.367809   -1.800832   -0.779377
 C   -5.859274   -3.084381   -0.967207
 C    3.173559    0.559380    0.398114
 C    4.111891   -1.458420   -0.558126
 C    4.823297   -1.689517    0.620011
 C    4.714443   -0.798132    1.689306
 C    5.683350   -2.898540    0.687089
 C   -4.484330   -3.297515   -0.904985
 C   -5.509929   -0.736760   -0.531199
 C   -3.622572   -2.234045   -0.656676
 C    3.293457   -0.342404   -0.666195
 C    3.892040    0.316313    1.572212
 C   -1.818308    0.186254   -0.098749
 C   -1.477224    1.502486    0.154892
 C    2.713992    2.726281   -0.819284
 C    2.279575    1.771282    0.290286
 N   -3.700882    1.425952   -0.030598
 N   -2.641156    2.200893    0.195710
 N    0.899388    1.324032    0.094948
 O    6.326748   -3.010581    1.870286
 O    5.810958   -3.705921   -0.199364
 O   -0.022197    3.260168    0.820403
 H   -3.888082    3.803947    0.475526
 H   -2.287539    3.960752    1.264264
 H   -2.432933    4.168891   -0.485335
 H   -7.435927   -1.631345   -0.826554
 H   -6.528888   -3.912262   -1.160090
 H    4.213308   -2.159976   -1.375111
 H    5.268415   -0.984200    2.598947
 H   -4.081997   -4.292113   -1.049243
 H   -5.897578    0.262335   -0.383805
 H   -2.554929   -2.411555   -0.609752
 H    2.749690   -0.167846   -1.588453
 H    3.800147    1.006897    2.401048
 H   -1.161897   -0.661991   -0.172482
 H    2.696072    2.231944   -1.793389
 H    2.038167    3.579864   -0.847893
 H    3.727481    3.080823   -0.631340
 H    2.293977    2.312902    1.237620
 H    0.729284    0.410221   -0.284792
 H    6.852523   -3.817444    1.813768
