45 
6rj3_ligand_dft.xyz
 C   -3.397504    0.010160   -0.043630
 C   -0.478705   -2.229745   -0.196991
 C   -4.227470    1.226201    0.004613
 C   -3.266707   -3.493814   -0.239685
 C   -6.401555    2.283871   -0.114179
 C   -5.817417    3.533319    0.080867
 C    2.976230   -1.010392    0.074324
 C    4.166557    0.811796    1.134753
 C    4.823846    1.089134   -0.064817
 C    4.555943    0.316621   -1.195536
 C    5.793555    2.215912   -0.083235
 C   -4.438244    3.628283    0.240198
 C   -5.615001    1.139480   -0.153348
 C   -3.649903    2.483044    0.204095
 C    3.253634   -0.230647    1.201932
 C    3.635777   -0.721875   -1.120992
 C   -1.994631   -0.106463   -0.052460
 C   -1.747232   -1.465755   -0.123599
 C    2.208130   -3.126635    1.272005
 C    1.957235   -2.132186    0.134395
 N   -3.963602   -1.199065   -0.101625
 N   -2.961385   -2.075904   -0.153186
 N    0.620960   -1.546823    0.214113
 O    6.375023    2.391963   -1.285822
 O    6.052456    2.917961    0.867505
 O   -0.425119   -3.382324   -0.611637
 H   -4.342285   -3.587264   -0.095572
 H   -2.971450   -3.886752   -1.213222
 H   -2.728080   -4.043414    0.533189
 H   -7.476931    2.199196   -0.240539
 H   -6.433383    4.427293    0.108645
 H    4.387417    1.420104    2.005551
 H    5.064450    0.530523   -2.128975
 H   -3.972116    4.596817    0.395553
 H   -6.066570    0.165292   -0.308557
 H   -2.575764    2.573089    0.339196
 H    2.757173   -0.441294    2.145577
 H    3.424228   -1.316049   -2.005654
 H   -1.262753    0.688417   -0.058147
 H    2.127698   -2.643870    2.251110
 H    1.466232   -3.926668    1.216595
 H    3.207459   -3.563505    1.181593
 H    1.988703   -2.687118   -0.808416
 H    0.515296   -0.637536    0.637043
 H    6.980760    3.142624   -1.182709
