74 
6s8a_ligand_dft.xyz
 C   -0.832150   -3.525398   -0.249745
 C   -1.639818   -2.362054   -0.053214
 C   -3.022754   -2.593364   -0.011908
 N   -3.542344   -3.795150   -0.161244
 N   -1.356257   -4.772361   -0.405979
 C    6.400556    0.500940    1.103154
 C    7.623202    1.401126    1.022710
 N    8.572874    0.868674   -0.023025
 C    9.814208    1.681991   -0.126915
 C    7.873457    0.715343   -1.352098
 C    6.642287   -0.159728   -1.179034
 N    5.763612    0.430255   -0.193419
 C    4.443282   -0.161314   -0.159052
 C    4.257549   -1.503918    0.177999
 C    2.980821   -2.040445    0.208524
 C    3.344218    0.629365   -0.476472
 C    2.066139    0.087102   -0.449147
 C    1.854053   -1.252893   -0.087416
 C    0.529285   -1.883808   -0.059056
 N    0.477816   -3.231167   -0.254717
 C   -2.664947   -4.816392   -0.350111
 O   -3.843716   -1.534613    0.170797
 C   -5.241774   -1.760414    0.186333
 C   -5.913152   -0.391462    0.218626
 C   -7.431810   -0.546680    0.128310
 C   -5.500740    0.408234    1.455242
 C   -0.732767   -1.274286    0.088421
 C   -1.060244    0.114839    0.443475
 C   -2.084874    0.800281   -0.212821
 C   -0.382406    0.790978    1.471185
 C   -0.720274    2.095893    1.801438
 C   -1.757404    2.768122    1.157733
 C   -2.453042    2.096631    0.151031
 N   -3.560968    2.648296   -0.533636
 C   -4.090038    3.903746   -0.450171
 O   -3.624984    4.804471    0.230874
 C   -5.318520    4.152115   -1.325955
 C   -6.234879    2.961950   -1.613567
 H    5.700427    0.932966    1.821931
 H    6.699686   -0.491111    1.498631
 H    8.173028    1.446195    1.966048
 H    7.345407    2.408164    0.703032
 H    8.834994   -0.076384    0.277390
 H    9.539942    2.688245   -0.446319
 H   10.299632    1.720691    0.849185
 H   10.480105    1.226838   -0.861292
 H    8.596682    0.287277   -2.050625
 H    7.594746    1.722073   -1.671920
 H    6.959132   -1.191329   -0.923733
 H    6.119460   -0.214940   -2.136660
 H    5.111587   -2.136261    0.418878
 H    2.811739   -3.085052    0.446511
 H    3.500070    1.667738   -0.756388
 H    1.219534    0.707405   -0.719334
 H   -3.129707   -5.794890   -0.468393
 H   -5.517863   -2.356452    1.067091
 H   -5.540897   -2.331752   -0.699967
 H   -5.568548    0.148741   -0.675606
 H   -7.728974   -1.090923   -0.775285
 H   -7.817736   -1.097085    0.995289
 H   -7.924923    0.431884    0.111888
 H   -5.846719   -0.095630    2.366800
 H   -4.414118    0.509388    1.513699
 H   -5.940088    1.412872    1.441700
 H   -2.630432    0.286556   -0.998635
 H    0.403594    0.273025    2.012344
 H   -0.184037    2.603042    2.599829
 H   -2.035152    3.776820    1.428019
 H   -4.049590    1.988583   -1.119984
 H   -4.958926    4.585646   -2.268107
 H   -5.873731    4.944473   -0.817387
 H   -5.765082    2.214580   -2.264005
 H   -6.542475    2.461337   -0.689880
 H   -7.139079    3.299588   -2.128974
