82 
6s90_ligand_ani-2x.xyz
 C   14.511293  -12.405150   -6.148092
 C   15.421114  -11.375489   -6.472962
 C   15.039204  -10.313434   -7.288196
 O   17.599873   -9.404657   -6.405159
 C   10.038438  -12.279172   -6.171046
 C   10.950992  -13.335523   -6.421235
 C    7.487358  -12.259333   -5.750546
 C    6.342267  -13.038847   -5.587055
 C    5.124527  -12.438523   -5.313480
 C    5.027595  -11.049968   -5.200540
 C    6.166454  -10.270365   -5.411396
 C    7.386141  -10.870264   -5.667230
 C    3.730964  -10.342257   -4.937411
 C    1.525659  -10.365630   -3.928727
 C    0.519412  -11.492251   -3.750452
 C   -0.096150  -13.379414   -2.279783
 C    2.284880  -12.870597   -2.704360
 C    3.260451  -11.717155   -2.883795
 C   17.723061  -10.527951   -5.941052
 C   19.025782  -10.962234   -5.333129
 C   20.165503  -10.242562   -5.685187
 C   21.409634  -10.582744   -5.174282
 C   21.559242  -11.644180   -4.277335
 C   20.404176  -12.343508   -3.906146
 C   19.160298  -12.011395   -4.420870
 C   22.906712  -12.063918   -3.686840
 C   23.207744  -13.525100   -4.069937
 C   22.859799  -11.942002   -2.152188
 C   24.063420  -11.194984   -4.194615
 N   16.730637  -11.475593   -5.941097
 C   13.765960  -10.304393   -7.845376
 C   12.888490  -11.350087   -7.607702
 C   13.265610  -12.417295   -6.787874
 C   14.893461  -13.424471   -5.091195
 C   12.320366  -13.549772   -6.649612
 C   10.126023  -14.521957   -6.384213
 N   10.612415  -15.751429   -6.562987
 C   11.917829  -15.805314   -6.758994
 N   12.799815  -14.788282   -6.794359
 C    8.775702  -12.909038   -6.021105
 N    8.825831  -14.235398   -6.147048
 O    3.461777   -9.289005   -5.498984
 N    2.867911  -10.922884   -4.044523
 N    0.888829  -12.323624   -2.547837
 H   15.740240   -9.510649   -7.472687
 H   10.253906  -11.220498   -6.098562
 H    6.420971  -14.115696   -5.664291
 H    4.243117  -13.064549   -5.201524
 H    6.080146   -9.188816   -5.370048
 H    8.270244  -10.255672   -5.814944
 H    1.471748   -9.689062   -3.061398
 H    1.322587   -9.781358   -4.824584
 H    0.532521  -12.148833   -4.625219
 H   -0.494583  -11.106161   -3.616932
 H   -1.086871  -12.942095   -2.133244
 H   -0.141172  -14.067661   -3.131560
 H    0.190500  -13.945752   -1.390156
 H    2.532951  -13.467317   -1.823422
 H    2.292217  -13.523740   -3.582442
 H    4.283805  -12.075614   -2.984261
 H    3.219776  -11.089915   -1.978549
 H   20.061242   -9.404858   -6.368182
 H   22.274954  -10.003674   -5.481637
 H   20.465059  -13.174886   -3.206553
 H   18.294703  -12.567636   -4.068723
 H   22.428559  -14.209481   -3.718665
 H   23.281811  -13.633801   -5.158357
 H   24.159128  -13.844765   -3.629250
 H   22.683363  -10.902933   -1.850194
 H   22.064023  -12.555428   -1.717158
 H   23.811395  -12.267456   -1.716218
 H   24.168483  -11.261523   -5.283961
 H   23.924438  -10.141685   -3.923709
 H   25.004984  -11.532296   -3.747763
 H   16.999641  -12.406296   -5.664875
 H   13.469766   -9.474243   -8.480303
 H   11.896094  -11.358968   -8.052931
 H   15.511173  -14.228191   -5.513575
 H   15.444529  -12.962297   -4.263233
 H   14.009942  -13.908811   -4.663571
 H   12.339353  -16.795705   -6.901765
 H    0.901659  -11.683529   -1.730702
