82 
6s90_ligand_xtb.xyz
 C   14.499159  -12.556795   -6.633356
 C   15.335155  -11.448332   -6.842868
 C   14.915620  -10.372661   -7.615679
 O   17.569498   -9.486801   -6.885078
 C   10.112671  -12.230329   -6.414657
 C   10.904271  -13.344722   -6.689002
 C    7.636932  -12.014637   -5.843717
 C    6.430212  -12.728968   -5.709353
 C    5.280721  -12.107147   -5.310724
 C    5.266955  -10.726843   -5.035783
 C    6.442776   -9.995285   -5.258580
 C    7.601225  -10.623459   -5.639690
 C    4.073471  -10.054496   -4.566267
 C    1.960432  -10.335297   -3.344784
 C    0.988203  -11.513520   -3.401982
 C    0.501475  -13.695698   -2.388254
 C    2.822598  -13.004469   -2.768107
 C    3.755635  -11.790950   -2.753148
 C   17.600525  -10.541851   -6.280079
 C   18.806873  -10.952068   -5.495349
 C   20.054313  -10.542384   -5.948866
 C   21.207189  -10.881752   -5.265735
 C   21.153989  -11.627639   -4.093793
 C   19.896535  -12.011014   -3.631502
 C   18.741706  -11.685677   -4.315029
 C   22.392397  -12.024065   -3.305839
 C   22.457200  -13.555276   -3.213134
 C   22.302935  -11.420094   -1.897113
 C   23.688180  -11.530637   -3.955056
 N   16.604143  -11.465137   -6.244519
 C   13.656896  -10.391511   -8.187291
 C   12.815705  -11.463783   -7.976219
 C   13.220909  -12.548012   -7.196810
 C   14.973891  -13.711267   -5.795156
 C   12.239746  -13.631560   -6.995570
 C    9.998649  -14.484032   -6.577151
 N   10.426124  -15.745127   -6.749865
 C   11.703166  -15.856296   -7.003582
 N   12.624848  -14.896256   -7.131739
 C    8.821021  -12.737164   -6.179600
 N    8.764436  -14.100551   -6.283752
 O    3.683126   -8.944526   -4.873905
 N    3.267331  -10.819328   -3.686834
 N    1.437519  -12.563906   -2.446182
 H   15.577702   -9.537013   -7.765586
 H   10.422776  -11.202425   -6.377039
 H    6.461156  -13.783605   -5.933129
 H    4.354422  -12.667723   -5.267003
 H    6.420343   -8.928432   -5.088876
 H    8.501463  -10.044720   -5.776909
 H    1.937831   -9.878585   -2.341668
 H    1.693483   -9.566044   -4.073853
 H    0.989747  -11.943142   -4.404924
 H   -0.024702  -11.203972   -3.139983
 H   -0.493586  -13.351079   -2.111998
 H    0.449290  -14.174541   -3.364713
 H    0.838578  -14.428455   -1.657060
 H    3.140510  -13.750604   -2.038628
 H    2.815901  -13.453480   -3.762602
 H    4.765537  -12.095388   -3.031404
 H    3.786127  -11.370527   -1.732470
 H   20.105191   -9.952886   -6.852117
 H   22.151968  -10.549076   -5.663369
 H   19.807060  -12.575104   -2.714909
 H   17.787696  -11.981184   -3.899746
 H   21.588822  -13.959591   -2.700542
 H   22.498033  -13.990513   -4.209524
 H   23.347302  -13.859972   -2.666519
 H   22.228830  -10.336260   -1.957462
 H   21.434209  -11.791068   -1.360423
 H   23.191821  -11.674503   -1.323410
 H   23.809031  -11.946510   -4.952624
 H   23.706864  -10.445033   -4.015808
 H   24.538111  -11.847715   -3.353759
 H   16.805507  -12.315177   -5.739255
 H   13.335255   -9.560606   -8.798360
 H   11.836140  -11.483857   -8.430056
 H   15.892692  -14.137075   -6.201774
 H   15.150056  -13.401931   -4.762264
 H   14.224441  -14.496247   -5.803468
 H   12.081106  -16.866008   -7.136030
 H    1.479826  -12.117631   -1.521137
