52 
6s9d_ligand_xtb.xyz
 C  -22.024392  -53.955554    1.155795
 C  -20.131630  -52.385629    0.857398
 C  -18.018263  -52.338185    1.046242
 C  -16.684029  -52.601966    1.324957
 C  -15.747585  -51.676015    0.911606
 C  -18.383309  -51.154476    0.362327
 C  -22.293378  -49.916191   -2.247547
 C  -22.749225  -50.253477   -3.669075
 C  -23.124713  -51.730636   -3.855228
 C  -25.268167  -52.031223   -2.757023
 C  -27.340358  -51.153722   -3.632956
 C  -27.356844  -52.436905   -1.624318
 C  -25.974067  -52.602753   -1.676483
 C  -25.659500  -54.907845    1.077965
 C  -23.999527  -53.248034   -0.248945
 O  -21.430117  -54.895900    1.613198
 N  -21.463244  -52.727421    0.874651
 N  -19.141636  -53.071435    1.333993
 C  -16.116630  -50.513151    0.236400
 C  -17.439275  -50.231463   -0.050242
 N  -19.757508  -51.197495    0.257140
 C  -20.612890  -50.239799   -0.390431
 C  -21.069216  -50.703967   -1.783248
 O  -23.922584  -52.247293   -2.811519
 C  -25.968573  -51.310308   -3.718030
 C  -28.041871  -51.720530   -2.584655
 C  -25.346126  -53.374021   -0.591323
 N  -26.153533  -54.188876    0.090842
 C  -24.330125  -54.870254    1.472267
 C  -23.479317  -54.000146    0.797582
 H  -16.405504  -53.502879    1.846194
 H  -14.701238  -51.851758    1.112792
 H  -23.124835  -50.101395   -1.561806
 H  -22.067385  -48.848079   -2.205421
 H  -21.955889  -50.021155   -4.381435
 H  -23.608797  -49.622420   -3.902912
 H  -22.221307  -52.346741   -3.825888
 H  -23.600385  -51.880755   -4.831014
 H  -27.855309  -50.586605   -4.394103
 H  -27.879159  -52.893388   -0.798606
 H  -26.369429  -55.554621    1.577635
 H  -23.375312  -52.593268   -0.829000
 H  -22.095009  -52.004281    0.562916
 H  -15.351035  -49.816259   -0.071054
 H  -17.714418  -49.328618   -0.576269
 H  -20.063019  -49.299143   -0.469985
 H  -21.488604  -50.049642    0.244357
 H  -20.249884  -50.577219   -2.493410
 H  -21.305721  -51.768912   -1.743564
 H  -25.448382  -50.865560   -4.551662
 H  -29.112268  -51.603836   -2.516659
 H  -23.952081  -55.485697    2.272353
