41 
6sde_ligand_xtb.xyz
 C   -1.711598   -2.566253   -0.044857
 C   -2.515076   -1.310382    0.209591
 C   -3.928948   -1.350723    0.145304
 C   -4.672918   -0.230369    0.383063
 C   -4.021260    0.972127    0.689128
 N   -2.623049    0.977781    0.737514
 C   -1.889462   -0.133192    0.507624
 C   -2.257009    2.249371    1.045119
 C   -3.429560    2.956423    1.171144
 N   -4.501455    2.172964    0.953369
 C   -0.868619   -2.961373    1.167642
 N   -0.859754   -2.408236   -1.203648
 C    0.245994   -1.654247   -1.387504
 C    0.638208   -1.932672   -2.727548
 N   -0.253171   -2.821273   -3.234622
 N   -1.109808   -3.082414   -2.337963
 N    1.709585   -1.357935   -3.272471
 N    0.890188   -0.819974   -0.581628
 C    1.954779   -0.245965   -1.140256
 C    2.343053   -0.532221   -2.476872
 C    2.687442    0.691265   -0.322760
 C    2.400112    1.054639    1.013027
 N    3.260643    1.943053    1.453588
 N    4.105265    2.176192    0.452254
 C    3.807029    1.451610   -0.636522
 C    5.180204    3.111892    0.613480
 H   -2.394772   -3.380273   -0.309957
 H   -4.413460   -2.283777   -0.096925
 H   -5.748931   -0.234227    0.340818
 H   -0.814847   -0.033559    0.554462
 H   -1.233481    2.546353    1.147537
 H   -3.551043    3.995025    1.409213
 H   -1.509193   -3.065523    2.039042
 H   -0.118283   -2.201556    1.368522
 H   -0.367807   -3.909354    0.983711
 H    3.214774   -0.054067   -2.899734
 H    1.613023    0.692337    1.641747
 H    4.388725    1.521297   -1.533129
 H    5.091597    3.928134   -0.105519
 H    6.143818    2.618734    0.474829
 H    5.119866    3.510967    1.623685
