41 
6sde_ligand_ani-2x.xyz
 C   -1.648416   -2.463022   -0.037910
 C   -2.597440   -1.300825    0.240423
 C   -4.003804   -1.541764    0.333497
 C   -4.887144   -0.539610    0.615816
 C   -4.390505    0.776720    0.824348
 N   -3.014755    0.975289    0.726098
 C   -2.133207   -0.036313    0.439814
 C   -2.791850    2.307284    0.965615
 C   -4.034133    2.846456    1.195059
 N   -5.019327    1.906700    1.108544
 C   -0.771923   -2.834342    1.157705
 N   -0.822416   -2.247554   -1.231000
 C    0.304070   -1.494029   -1.414047
 C    0.590838   -1.656183   -2.778157
 N   -0.353594   -2.477266   -3.328278
 N   -1.183550   -2.818268   -2.406605
 N    1.642456   -1.059408   -3.377121
 N    1.011232   -0.751447   -0.578356
 C    2.067202   -0.155006   -1.162382
 C    2.354313   -0.323370   -2.547808
 C    2.915688    0.687196   -0.330038
 C    2.766611    0.959803    1.051694
 N    3.714123    1.770310    1.495293
 N    4.477270    2.030387    0.424652
 C    4.043038    1.407648   -0.689828
 C    5.622221    2.900508    0.562269
 H   -2.263788   -3.322706   -0.317167
 H   -4.376692   -2.553324    0.174607
 H   -5.955404   -0.704794    0.688919
 H   -1.083815    0.238327    0.382836
 H   -1.794206    2.719292    0.948658
 H   -4.263429    3.879979    1.420773
 H   -1.393785   -3.133510    2.006260
 H   -0.139256   -1.992288    1.455269
 H   -0.122867   -3.670015    0.882769
 H    3.219607    0.183837   -2.973773
 H    2.010408    0.594263    1.735598
 H    4.569853    1.532186   -1.628756
 H    5.301057    3.888739    0.899877
 H    6.112130    2.989244   -0.408959
 H    6.323992    2.481476    1.287289
