46 
6st3_ligand_xtb.xyz
 C    5.655765   22.919976   29.050882
 C    5.555088   23.077984   27.564433
 C    4.579440   23.897131   27.063785
 C    5.166789   23.557312   24.914119
 C    4.059260   24.596002   21.842041
 C    5.146148   23.819227   21.375511
 C    5.718030   23.313275   22.505817
 C    6.444786   22.418443   26.638759
 C    6.867283   21.825811   30.869405
 C    8.171460   22.475506   31.253294
 C    9.293028   21.720369   31.562650
 C   10.491769   22.328568   31.887274
 C    8.273550   23.862434   31.253723
 C    9.463864   24.481289   31.575197
 C   10.579897   23.716072   31.903627
 C   12.656962   23.891804   33.048656
 C   13.997823   24.180520   32.813689
 C   14.960504   23.766576   33.714193
 C   14.598256   23.062989   34.850907
 C   13.262727   22.787180   35.089362
 C   12.289387   23.200118   34.198133
 N    4.376837   24.139836   25.757918
 N    4.986270   23.784417   23.565318
 N    3.980055   24.564520   23.143641
 N    6.169325   22.727388   25.299535
 N    6.579982   22.036875   29.466358
 O    4.923990   23.544394   29.798418
 O    7.366957   21.657996   26.875483
 O   11.747444   24.387895   32.151777
 H    3.905557   24.400666   27.743358
 H    3.353002   25.161430   21.268438
 H    5.450550   23.664289   20.361461
 H    6.571244   22.675579   22.616250
 H    6.039958   22.274884   31.426866
 H    6.900733   20.750725   31.068175
 H    9.234759   20.641477   31.550778
 H   11.362003   21.730816   32.116517
 H    7.406003   24.455599   31.005497
 H    9.551173   25.556506   31.578457
 H   14.262499   24.731494   31.924641
 H   15.999482   23.991900   33.524831
 H   15.352353   22.736265   35.550694
 H   12.971203   22.250628   35.980193
 H   11.246217   22.998247   34.393872
 H    6.778509   22.274967   24.627184
 H    7.198282   21.619222   28.779980
