51 
6v1c_ligand_dft.xyz
 C    4.273036   -2.520613    0.085869
 C    3.891674   -1.077192   -0.148144
 O    4.737789   -0.184737   -0.228762
 N    2.567299   -0.838008   -0.295149
 C    2.058649    0.493562   -0.564257
 C    2.026163    1.392322    0.682136
 O    3.306905    1.785977    1.109591
 C    1.223992    2.669534    0.424229
 O    1.119130    3.423841    1.605233
 C   -0.162580    2.260094   -0.041070
 C   -1.177775    3.377748   -0.210499
 O   -2.517103    2.911658   -0.270859
 O    0.018132    1.598275   -1.312122
 C    0.681042    0.353828   -1.232925
 O   -0.063340   -0.586514   -0.521360
 C   -1.121771   -1.270238   -1.189541
 C   -2.433772   -0.465958   -1.176583
 O   -2.399228    0.689640   -1.986579
 C   -2.781310   -0.227910    0.298721
 O   -3.945055    0.528156    0.511555
 C   -2.984381   -1.594208    0.962944
 O   -3.271816   -1.454650    2.306932
 O   -1.792614   -2.349425    0.884600
 C   -1.352552   -2.588849   -0.437359
 C   -0.122282   -3.485758   -0.299564
 O    0.806781   -2.998142    0.646197
 H    5.039954   -2.559815    0.862074
 H    3.419700   -3.140351    0.372138
 H    4.712460   -2.920352   -0.833674
 H    1.892636   -1.554323   -0.019206
 H    2.722914    0.971406   -1.293779
 H    1.517037    0.844410    1.492367
 H    3.981234    1.232769    0.668136
 H    1.717978    3.245401   -0.375134
 H    2.013638    3.458812    1.974571
 H   -0.574172    1.550232    0.683484
 H   -1.112072    4.023467    0.666936
 H   -0.927437    3.974466   -1.098322
 H   -2.640451    2.379787   -1.076573
 H    0.799305    0.032747   -2.275568
 H   -0.825931   -1.483656   -2.227932
 H   -3.219776   -1.096352   -1.611096
 H   -1.498870    1.065673   -1.935924
 H   -1.928058    0.226455    0.811292
 H   -3.673490    1.462150    0.479261
 H   -3.786094   -2.150394    0.438441
 H   -3.807408   -0.648413    2.368368
 H   -2.117696   -3.149939   -1.000488
 H   -0.460306   -4.489183   -0.009320
 H    0.396827   -3.563391   -1.259604
 H    0.281559   -2.656362    1.386448
